file 37556201 1482247777                                        
version 2
run General-0-20161220-16:29:24-3611
attr configname General
attr datetime 20161220-16:29:24
attr experiment General
attr inifile omnetpp.ini
attr iterationvars ""
attr iterationvars2 $repetition=0
attr measurement ""
attr network Netzwerk
attr processid 3611
attr repetition 0
attr replication #0
attr resultdir results
attr runnumber 0
attr seedset 0
param **.message_length 500
param **.sending_interval 30
param **.transceiver_type "\"CC2530\""

vector 0  Netzwerk.Sender.battery  "Battery Capacity"  ETV
vector 2  Netzwerk.Receiver.battery  "Battery Capacity"  ETV
vector 1  Netzwerk.Sender.battery  "Power Consumption"  ETV
vector 3  Netzwerk.Receiver.battery  "Power Consumption"  ETV
0	702 2901268 0 466031 0 1747620 116509 1882.476 2232 239686916.904 494279543288.27
1	2901970 5388673 1 466031 0 1747620 233016 0 0.0335 3926.2860999954 130.75464107007
2	8290643 3227048 0 466033 0 1747620 116510 -223.4061 2232 117012761.0028 176056452596.85
3	11517691 5621687 2 466028 0 1747618.5 233016 0 0.0243 2854.4216999989 68.800878750186
0	17139378 3003134 466034 932066 1747620 3495240 116509 1532.952 1882.476 198963875.664 340959247725.64
1	20142512 5592384 466034 932063 1747620 3495240 233016 0.0002 0.0335 3926.3195999954 130.75576332007
2	25734896 3393659 466036 932065 1747648.5 3495240 116508 -2678.8122 -223.4118 -169066156.896 303869675683.56
3	29128555 5825448 466033 932065 1747620 3495240 233018 0.0002 0.0243 2854.4704999989 68.802059770186
0	34954003 437756 932071 999999 3495270 3750000 16983 1482 1532.946 25601439.432 38597190811.599
1	35391759 815232 932066 999999 3495240 3750000 33968 0.0002 0.0335 572.36080000005 19.06097336
2	36206991 500058 932068 999996 3495268.5 3749998.5 16983 -3036.71355 -2678.8179 -48533565.8568 138879233824.46
3	36707049 849152 932068 999996 3495268.5 3749998.5 33966 0.0002 0.0243 416.08350000002 10.028970990003
