file 55690110 1482350279                                        
version 2
run General-0-20161221-18:47:09-9704
attr configname General
attr datetime 20161221-18:47:09
attr experiment General
attr inifile omnetpp.ini
attr iterationvars ""
attr iterationvars2 $repetition=0
attr measurement ""
attr network Netzwerk
attr processid 9704
attr repetition 0
attr replication #0
attr resultdir results
attr runnumber 0
attr seedset 0
param **.message_length 500
param **.sending_interval 30
param **.transceiver_type "\"CC2530\""

vector 0  Netzwerk.Sender.battery  "Battery capacity"  ETV
vector 3  Netzwerk.Receiver.battery  "Battery capacity"  ETV
vector 1  Netzwerk.Sender.battery  "Power Level"  ETV
vector 4  Netzwerk.Receiver.battery  "Power Level"  ETV
vector 5  Netzwerk.Receiver.battery  "How much is recovered"  ETV
vector 2  Netzwerk.Sender.battery  "How much is recovered"  ETV
0	846 4270916 0 349522 0 1310700 131072 1969.857273744 2232 275372787.22072 579288914666.4
1	4271762 4165339 1 349522 0 1310700 174762 0 0.0335 2944.7061999968 98.065700240093
2	8437101 822881 10 349522 30 1310700 43690 0 0 0 0
3	9259982 4315361 0 349524 0 1310728.5 131073 397.6502532192 2232 172294812.20991 263235418133.87
4	13575343 4340151 2 349524 0 1310728.5 174764 0 0.0243 2140.8346999993 51.601101970135
5	17915494 910289 9 349521 30 1310700 43690 458 1045 32207054 24378122432
0	18825783 4423740 349527 699050 1310730 2621430 131073 1707.7085474256 1969.8512736816 241014399.21599 443923068162.93
1	23249523 4369050 349527 699047 1310730 2621430 174762 0.0002 0.0335 2944.7396999968 98.066822490093
2	27618573 873820 349530 699050 1310730 2621430 43691 0 0 0 0
3	28492393 4493047 349529 699049 1310730 2621430 131072 -1311.5215804608 397.6140122352 -63547068.37703 62873968242.564
4	32985440 4543810 349529 699049 1310730 2621430 174762 0.0002 0.0243 2140.8344999993 51.601101930135
5	37529250 1025416 349529 699049 1310730 2621430 43691 839 31401 593209121 12407206618509
0	38554666 3808885 699055 999999 2621460 3750000 112855 1481.9922 1707.7025473632 179986726.06718 287530843842.07
1	42363551 3761900 699050 999999 2621430 3750000 150476 0.0002 0.0335 2535.5205999973 84.438855020119
2	46125451 752360 699058 999994 2621460 3749970 37618 0 0 0 0
3	46877811 3997141 699052 999996 2621458.5 3749998.5 112855 -2517.2433745056 -1311.5202821064 -218179714.0212 435465422135.45
4	50874952 3912326 699052 999996 2621458.5 3749998.5 150474 0.0002 0.0243 1843.3064999994 44.429705610089
5	54787278 902832 699057 999993 2621460 3749970 37618 31194 58413 1701981280 79289508949254
