version 2
run General-0-20161222-15:28:39-4344
attr configname General
attr datetime 20161222-15:28:39
attr experiment General
attr inifile omnetpp.ini
attr iterationvars ""
attr iterationvars2 $repetition=0
attr measurement ""
attr network Netzwerk
attr processid 4344
attr repetition 0
attr replication #0
attr resultdir results
attr runnumber 0
attr seedset 0
param **.message_length 500
param **.sending_interval 30
param **.transceiver_type "\"CC2530\""

vector 0  Netzwerk.Sender.battery  "Battery capacity"  ETV
vector 3  Netzwerk.Receiver.battery  "Battery capacity"  ETV
vector 1  Netzwerk.Sender.battery  "Power Level"  ETV
vector 4  Netzwerk.Receiver.battery  "Power Level"  ETV
vector 5  Netzwerk.Receiver.battery  "How much is recovered"  ETV
vector 2  Netzwerk.Sender.battery  "How much is recovered"  ETV
0	0	0	108
0	1	0	108
0	7	30	107.9939999952
0	10	30	107.9939999952
0	10	30	107.9939999952
0	15	60	107.9879999904
0	18	60	107.9879999904
0	18	60	107.9879999904
0	23	90	107.9819999856
0	26	90	107.9819999856
0	26	90	107.9819999856
0	31	120	107.9759999808
0	34	120	107.9759999808
0	34	120	107.9759999808
0	39	150	107.969999976
0	42	150	107.969999976
0	42	150	107.969999976
0	47	180	107.9639999712
0	50	180	107.9639999712
0	50	180	107.9639999712
0	55	210	107.9579999664
0	58	210	107.9579999664
0	58	210	107.9579999664
0	63	240	107.9519999616
0	66	240	107.9519999616
0	66	240	107.9519999616
0	71	270	107.9459999568
0	74	270	107.9459999568
0	74	270	107.9459999568
0	79	300	107.939999952
0	82	300	107.939999952
0	82	300	107.939999952
0	87	330	107.9339999472
0	90	330	107.9339999472
0	90	330	107.9339999472
0	95	360	107.9279999424
0	98	360	107.9279999424
0	98	360	107.9279999424
0	103	390	107.9219999376
0	106	390	107.9219999376
0	106	390	107.9219999376
0	111	420	107.9159999328
0	114	420	107.9159999328
0	114	420	107.9159999328
0	119	450	107.909999928
0	122	450	107.909999928
0	122	450	107.909999928
0	127	480	107.9039999232
0	130	480	107.9039999232
0	130	480	107.9039999232
0	135	510	107.8979999184
0	138	510	107.8979999184
0	138	510	107.8979999184
0	143	540	107.8919999136
0	146	540	107.8919999136
0	146	540	107.8919999136
0	151	570	107.8859999088
0	154	570	107.8859999088
0	154	570	107.8859999088
0	159	600	107.879999904
0	162	600	107.879999904
0	162	600	107.879999904
0	167	630	107.8739998992
0	170	630	107.8739998992
0	170	630	107.8739998992
0	175	660	107.8679998944
0	178	660	107.8679998944
0	178	660	107.8679998944
0	183	690	107.8619998896
0	186	690	107.8619998896
0	186	690	107.8619998896
0	191	720	107.8559998848
0	194	720	107.8559998848
0	194	720	107.8559998848
0	199	750	107.84999988
0	202	750	107.84999988
0	202	750	107.84999988
0	207	780	107.8439998752
0	210	780	107.8439998752
0	210	780	107.8439998752
0	215	810	107.8379998704
0	218	810	107.8379998704
0	218	810	107.8379998704
0	223	840	107.8319998656
0	226	840	107.8319998656
0	226	840	107.8319998656
0	231	870	107.8259998608
0	234	870	107.8259998608
0	234	870	107.8259998608
0	239	900	107.819999856
0	242	900	107.819999856
0	242	900	107.819999856
0	247	930	107.8139998512
0	250	930	107.8139998512
0	250	930	107.8139998512
0	255	960	107.8079998464
0	258	960	107.8079998464
0	258	960	107.8079998464
0	263	990	107.8019998416
0	266	990	107.8019998416
0	266	990	107.8019998416
0	271	1020	107.7959998368
0	274	1020	107.7959998368
0	274	1020	107.7959998368
0	279	1050	107.789999832
0	282	1050	107.789999832
0	282	1050	107.789999832
0	287	1080	107.7839998272
0	290	1080	107.7839998272
0	290	1080	107.7839998272
0	295	1110	107.7779998224
0	298	1110	107.7779998224
0	298	1110	107.7779998224
0	303	1140	107.7719998176
0	306	1140	107.7719998176
0	306	1140	107.7719998176
0	311	1170	107.7659998128
0	314	1170	107.7659998128
0	314	1170	107.7659998128
0	319	1200	107.759999808
0	322	1200	107.759999808
0	322	1200	107.759999808
0	327	1230	107.7539998032
0	330	1230	107.7539998032
0	330	1230	107.7539998032
0	335	1260	107.7479997984
0	338	1260	107.7479997984
0	338	1260	107.7479997984
0	343	1290	107.7419997936
0	346	1290	107.7419997936
0	346	1290	107.7419997936
0	351	1320	107.7359997888
0	354	1320	107.7359997888
0	354	1320	107.7359997888
0	359	1350	107.729999784
0	362	1350	107.729999784
0	362	1350	107.729999784
0	367	1380	107.7239997792
0	370	1380	107.7239997792
0	370	1380	107.7239997792
0	375	1410	107.7179997744
0	378	1410	107.7179997744
0	378	1410	107.7179997744
0	383	1440	107.7119997696
0	386	1440	107.7119997696
0	386	1440	107.7119997696
0	391	1470	107.7059997648
0	394	1470	107.7059997648
0	394	1470	107.7059997648
0	399	1500	107.69999976
0	402	1500	107.69999976
0	402	1500	107.69999976
0	407	1530	107.6939997552
0	410	1530	107.6939997552
0	410	1530	107.6939997552
0	415	1560	107.6879997504
0	418	1560	107.6879997504
0	418	1560	107.6879997504
0	423	1590	107.6819997456
0	426	1590	107.6819997456
0	426	1590	107.6819997456
0	431	1620	107.6759997408
0	434	1620	107.6759997408
0	434	1620	107.6759997408
0	439	1650	107.669999736
0	442	1650	107.669999736
0	442	1650	107.669999736
0	447	1680	107.6639997312
0	450	1680	107.6639997312
0	450	1680	107.6639997312
0	455	1710	107.6579997264
0	458	1710	107.6579997264
0	458	1710	107.6579997264
0	463	1740	107.6519997216
0	466	1740	107.6519997216
0	466	1740	107.6519997216
0	471	1770	107.6459997168
0	474	1770	107.6459997168
0	474	1770	107.6459997168
0	479	1800	107.639999712
0	482	1800	107.639999712
0	482	1800	107.639999712
0	487	1830	107.6339997072
0	490	1830	107.6339997072
0	490	1830	107.6339997072
0	495	1860	107.6279997024
0	498	1860	107.6279997024
0	498	1860	107.6279997024
0	503	1890	107.6219996976
0	506	1890	107.6219996976
0	506	1890	107.6219996976
0	511	1920	107.6159996928
0	514	1920	107.6159996928
0	514	1920	107.6159996928
0	519	1950	107.609999688
0	522	1950	107.609999688
0	522	1950	107.609999688
0	527	1980	107.6039996832
0	530	1980	107.6039996832
0	530	1980	107.6039996832
0	535	2010	107.5979996784
0	538	2010	107.5979996784
0	538	2010	107.5979996784
0	543	2040	107.5919996736
0	546	2040	107.5919996736
0	546	2040	107.5919996736
0	551	2070	107.5859996688
0	554	2070	107.5859996688
0	554	2070	107.5859996688
0	559	2100	107.579999664
0	562	2100	107.579999664
0	562	2100	107.579999664
0	567	2130	107.5739996592
0	570	2130	107.5739996592
0	570	2130	107.5739996592
0	575	2160	107.5679996544
0	578	2160	107.5679996544
0	578	2160	107.5679996544
0	583	2190	107.5619996496
0	586	2190	107.5619996496
0	586	2190	107.5619996496
0	591	2220	107.5559996448
0	594	2220	107.5559996448
0	594	2220	107.5559996448
0	599	2250	107.54999964
0	602	2250	107.54999964
0	602	2250	107.54999964
0	607	2280	107.5439996352
0	610	2280	107.5439996352
0	610	2280	107.5439996352
0	615	2310	107.5379996304
0	618	2310	107.5379996304
0	618	2310	107.5379996304
0	623	2340	107.5319996256
0	626	2340	107.5319996256
0	626	2340	107.5319996256
0	631	2370	107.5259996208
0	634	2370	107.5259996208
0	634	2370	107.5259996208
0	639	2400	107.519999616
0	642	2400	107.519999616
0	642	2400	107.519999616
0	647	2430	107.5139996112
0	650	2430	107.5139996112
0	650	2430	107.5139996112
0	655	2460	107.5079996064
0	658	2460	107.5079996064
0	658	2460	107.5079996064
0	663	2490	107.5019996016
0	666	2490	107.5019996016
0	666	2490	107.5019996016
0	671	2520	107.4959995968
0	674	2520	107.4959995968
0	674	2520	107.4959995968
0	679	2550	107.489999592
0	682	2550	107.489999592
0	682	2550	107.489999592
0	687	2580	107.4839995872
0	690	2580	107.4839995872
0	690	2580	107.4839995872
0	695	2610	107.4779995824
0	698	2610	107.4779995824
0	698	2610	107.4779995824
0	703	2640	107.4719995776
0	706	2640	107.4719995776
0	706	2640	107.4719995776
0	711	2670	107.4659995728
0	714	2670	107.4659995728
0	714	2670	107.4659995728
0	719	2700	107.459999568
0	722	2700	107.459999568
0	722	2700	107.459999568
0	727	2730	107.4539995632
0	730	2730	107.4539995632
0	730	2730	107.4539995632
0	735	2760	107.4479995584
0	738	2760	107.4479995584
0	738	2760	107.4479995584
0	743	2790	107.4419995536
0	746	2790	107.4419995536
0	746	2790	107.4419995536
0	751	2820	107.4359995488
0	754	2820	107.4359995488
0	754	2820	107.4359995488
0	759	2850	107.429999544
0	762	2850	107.429999544
0	762	2850	107.429999544
0	767	2880	107.4239995392
0	770	2880	107.4239995392
0	770	2880	107.4239995392
0	775	2910	107.4179995344
0	778	2910	107.4179995344
0	778	2910	107.4179995344
0	783	2940	107.4119995296
0	786	2940	107.4119995296
0	786	2940	107.4119995296
0	791	2970	107.4059995248
0	794	2970	107.4059995248
0	794	2970	107.4059995248
0	799	3000	107.39999952
0	802	3000	107.39999952
0	802	3000	107.39999952
0	807	3030	107.3939995152
0	810	3030	107.3939995152
0	810	3030	107.3939995152
0	815	3060	107.3879995104
0	818	3060	107.3879995104
0	818	3060	107.3879995104
0	823	3090	107.3819995056
0	826	3090	107.3819995056
0	826	3090	107.3819995056
0	831	3120	107.3759995008
0	834	3120	107.3759995008
0	834	3120	107.3759995008
0	839	3150	107.369999496
0	842	3150	107.369999496
0	842	3150	107.369999496
0	847	3180	107.3639994912
0	850	3180	107.3639994912
0	850	3180	107.3639994912
0	855	3210	107.3579994864
0	858	3210	107.3579994864
0	858	3210	107.3579994864
0	863	3240	107.3519994816
0	866	3240	107.3519994816
0	866	3240	107.3519994816
0	871	3270	107.3459994768
0	874	3270	107.3459994768
0	874	3270	107.3459994768
0	879	3300	107.339999472
0	882	3300	107.339999472
0	882	3300	107.339999472
0	887	3330	107.3339994672
0	890	3330	107.3339994672
0	890	3330	107.3339994672
0	895	3360	107.3279994624
0	898	3360	107.3279994624
0	898	3360	107.3279994624
0	903	3390	107.3219994576
0	906	3390	107.3219994576
0	906	3390	107.3219994576
0	911	3420	107.3159994528
0	914	3420	107.3159994528
0	914	3420	107.3159994528
0	919	3450	107.309999448
0	922	3450	107.309999448
0	922	3450	107.309999448
0	927	3480	107.3039994432
0	930	3480	107.3039994432
0	930	3480	107.3039994432
0	935	3510	107.2979994384
0	938	3510	107.2979994384
0	938	3510	107.2979994384
0	943	3540	107.2919994336
0	946	3540	107.2919994336
0	946	3540	107.2919994336
0	951	3570	107.2859994288
0	954	3570	107.2859994288
0	954	3570	107.2859994288
0	959	3600	107.279999424
0	962	3600	107.279999424
0	962	3600	107.279999424
0	967	3630	107.2739994192
0	970	3630	107.2739994192
0	970	3630	107.2739994192
0	975	3660	107.2679994144
0	978	3660	107.2679994144
0	978	3660	107.2679994144
0	983	3690	107.2619994096
0	986	3690	107.2619994096
0	986	3690	107.2619994096
0	991	3720	107.2559994048
0	994	3720	107.2559994048
0	994	3720	107.2559994048
0	999	3750	107.2499994
0	1002	3750	107.2499994
0	1002	3750	107.2499994
0	1007	3780	107.2439993952
0	1010	3780	107.2439993952
0	1010	3780	107.2439993952
0	1015	3810	107.2379993904
0	1018	3810	107.2379993904
0	1018	3810	107.2379993904
0	1023	3840	107.2319993856
0	1026	3840	107.2319993856
0	1026	3840	107.2319993856
0	1031	3870	107.2259993808
0	1034	3870	107.2259993808
0	1034	3870	107.2259993808
0	1039	3900	107.219999376
0	1042	3900	107.219999376
0	1042	3900	107.219999376
0	1047	3930	107.2139993712
0	1050	3930	107.2139993712
0	1050	3930	107.2139993712
0	1055	3960	107.2079993664
0	1058	3960	107.2079993664
0	1058	3960	107.2079993664
0	1063	3990	107.2019993616
0	1066	3990	107.2019993616
0	1066	3990	107.2019993616
0	1071	4020	107.1959993568
0	1074	4020	107.1959993568
0	1074	4020	107.1959993568
0	1079	4050	107.189999352
0	1082	4050	107.189999352
0	1082	4050	107.189999352
0	1087	4080	107.1839993472
0	1090	4080	107.1839993472
0	1090	4080	107.1839993472
0	1095	4110	107.1779993424
0	1098	4110	107.1779993424
0	1098	4110	107.1779993424
0	1103	4140	107.1719993376
0	1106	4140	107.1719993376
0	1106	4140	107.1719993376
0	1111	4170	107.1659993328
0	1114	4170	107.1659993328
0	1114	4170	107.1659993328
0	1119	4200	107.159999328
0	1122	4200	107.159999328
0	1122	4200	107.159999328
0	1127	4230	107.1539993232
0	1130	4230	107.1539993232
0	1130	4230	107.1539993232
0	1135	4260	107.1479993184
0	1138	4260	107.1479993184
0	1138	4260	107.1479993184
0	1143	4290	107.1419993136
0	1146	4290	107.1419993136
0	1146	4290	107.1419993136
0	1151	4320	107.1359993088
0	1154	4320	107.1359993088
0	1154	4320	107.1359993088
0	1159	4350	107.129999304
0	1162	4350	107.129999304
0	1162	4350	107.129999304
0	1167	4380	107.1239992992
0	1170	4380	107.1239992992
0	1170	4380	107.1239992992
0	1175	4410	107.1179992944
0	1178	4410	107.1179992944
0	1178	4410	107.1179992944
0	1183	4440	107.1119992896
0	1186	4440	107.1119992896
0	1186	4440	107.1119992896
0	1191	4470	107.1059992848
0	1194	4470	107.1059992848
0	1194	4470	107.1059992848
0	1199	4500	107.09999928
0	1202	4500	107.09999928
0	1202	4500	107.09999928
0	1207	4530	107.0939992752
0	1210	4530	107.0939992752
0	1210	4530	107.0939992752
0	1215	4560	107.0879992704
0	1218	4560	107.0879992704
0	1218	4560	107.0879992704
0	1223	4590	107.0819992656
0	1226	4590	107.0819992656
0	1226	4590	107.0819992656
0	1231	4620	107.0759992608
0	1234	4620	107.0759992608
0	1234	4620	107.0759992608
0	1239	4650	107.069999256
0	1242	4650	107.069999256
0	1242	4650	107.069999256
0	1247	4680	107.0639992512
0	1250	4680	107.0639992512
0	1250	4680	107.0639992512
0	1255	4710	107.0579992464
0	1258	4710	107.0579992464
0	1258	4710	107.0579992464
0	1263	4740	107.0519992416
0	1266	4740	107.0519992416
0	1266	4740	107.0519992416
0	1271	4770	107.0459992368
0	1274	4770	107.0459992368
0	1274	4770	107.0459992368
0	1279	4800	107.039999232
0	1282	4800	107.039999232
0	1282	4800	107.039999232
0	1287	4830	107.0339992272
0	1290	4830	107.0339992272
0	1290	4830	107.0339992272
0	1295	4860	107.0279992224
0	1298	4860	107.0279992224
0	1298	4860	107.0279992224
0	1303	4890	107.0219992176
0	1306	4890	107.0219992176
0	1306	4890	107.0219992176
0	1311	4920	107.0159992128
0	1314	4920	107.0159992128
0	1314	4920	107.0159992128
0	1319	4950	107.009999208
0	1322	4950	107.009999208
0	1322	4950	107.009999208
0	1327	4980	107.0039992032
0	1330	4980	107.0039992032
0	1330	4980	107.0039992032
0	1335	5010	106.9979991984
0	1338	5010	106.9979991984
0	1338	5010	106.9979991984
0	1343	5040	106.9919991936
0	1346	5040	106.9919991936
0	1346	5040	106.9919991936
0	1351	5070	106.9859991888
0	1354	5070	106.9859991888
0	1354	5070	106.9859991888
0	1359	5100	106.979999184
0	1362	5100	106.979999184
0	1362	5100	106.979999184
0	1367	5130	106.9739991792
0	1370	5130	106.9739991792
0	1370	5130	106.9739991792
0	1375	5160	106.9679991744
0	1378	5160	106.9679991744
0	1378	5160	106.9679991744
0	1383	5190	106.9619991696
0	1386	5190	106.9619991696
0	1386	5190	106.9619991696
0	1391	5220	106.9559991648
0	1394	5220	106.9559991648
0	1394	5220	106.9559991648
0	1399	5250	106.94999916
0	1402	5250	106.94999916
0	1402	5250	106.94999916
0	1407	5280	106.9439991552
0	1410	5280	106.9439991552
0	1410	5280	106.9439991552
0	1415	5310	106.9379991504
0	1418	5310	106.9379991504
0	1418	5310	106.9379991504
0	1423	5340	106.9319991456
0	1426	5340	106.9319991456
0	1426	5340	106.9319991456
0	1431	5370	106.9259991408
0	1434	5370	106.9259991408
0	1434	5370	106.9259991408
0	1439	5400	106.919999136
0	1442	5400	106.919999136
0	1442	5400	106.919999136
0	1447	5430	106.9139991312
0	1450	5430	106.9139991312
0	1450	5430	106.9139991312
0	1455	5460	106.9079991264
0	1458	5460	106.9079991264
0	1458	5460	106.9079991264
0	1463	5490	106.9019991216
0	1466	5490	106.9019991216
0	1466	5490	106.9019991216
0	1471	5520	106.8959991168
0	1474	5520	106.8959991168
0	1474	5520	106.8959991168
0	1479	5550	106.889999112
0	1482	5550	106.889999112
0	1482	5550	106.889999112
0	1487	5580	106.8839991072
0	1490	5580	106.8839991072
0	1490	5580	106.8839991072
0	1495	5610	106.8779991024
0	1498	5610	106.8779991024
0	1498	5610	106.8779991024
0	1503	5640	106.8719990976
0	1506	5640	106.8719990976
0	1506	5640	106.8719990976
0	1511	5670	106.8659990928
0	1514	5670	106.8659990928
0	1514	5670	106.8659990928
0	1519	5700	106.859999088
0	1522	5700	106.859999088
0	1522	5700	106.859999088
0	1527	5730	106.8539990832
0	1530	5730	106.8539990832
0	1530	5730	106.8539990832
0	1535	5760	106.8479990784
0	1538	5760	106.8479990784
0	1538	5760	106.8479990784
0	1543	5790	106.8419990736
0	1546	5790	106.8419990736
0	1546	5790	106.8419990736
0	1551	5820	106.8359990688
0	1554	5820	106.8359990688
0	1554	5820	106.8359990688
0	1559	5850	106.829999064
0	1562	5850	106.829999064
0	1562	5850	106.829999064
0	1567	5880	106.8239990592
0	1570	5880	106.8239990592
0	1570	5880	106.8239990592
0	1575	5910	106.8179990544
0	1578	5910	106.8179990544
0	1578	5910	106.8179990544
0	1583	5940	106.8119990496
0	1586	5940	106.8119990496
0	1586	5940	106.8119990496
0	1591	5970	106.8059990448
0	1594	5970	106.8059990448
0	1594	5970	106.8059990448
0	1599	6000	106.79999904
0	1602	6000	106.79999904
0	1602	6000	106.79999904
0	1607	6030	106.7939990352
0	1610	6030	106.7939990352
0	1610	6030	106.7939990352
0	1615	6060	106.7879990304
0	1618	6060	106.7879990304
0	1618	6060	106.7879990304
0	1623	6090	106.7819990256
0	1626	6090	106.7819990256
0	1626	6090	106.7819990256
0	1631	6120	106.7759990208
0	1634	6120	106.7759990208
0	1634	6120	106.7759990208
0	1639	6150	106.769999016
0	1642	6150	106.769999016
0	1642	6150	106.769999016
0	1647	6180	106.7639990112
0	1650	6180	106.7639990112
0	1650	6180	106.7639990112
0	1655	6210	106.7579990064
0	1658	6210	106.7579990064
0	1658	6210	106.7579990064
0	1663	6240	106.7519990016
0	1666	6240	106.7519990016
0	1666	6240	106.7519990016
0	1671	6270	106.7459989968
0	1674	6270	106.7459989968
0	1674	6270	106.7459989968
0	1679	6300	106.739998992
0	1682	6300	106.739998992
0	1682	6300	106.739998992
0	1687	6330	106.7339989872
0	1690	6330	106.7339989872
0	1690	6330	106.7339989872
0	1695	6360	106.7279989824
0	1698	6360	106.7279989824
0	1698	6360	106.7279989824
0	1703	6390	106.7219989776
0	1706	6390	106.7219989776
0	1706	6390	106.7219989776
0	1711	6420	106.7159989728
0	1714	6420	106.7159989728
0	1714	6420	106.7159989728
0	1719	6450	106.709998968
0	1722	6450	106.709998968
0	1722	6450	106.709998968
0	1727	6480	106.7039989632
0	1730	6480	106.7039989632
0	1730	6480	106.7039989632
0	1735	6510	106.6979989584
0	1738	6510	106.6979989584
0	1738	6510	106.6979989584
0	1743	6540	106.6919989536
0	1746	6540	106.6919989536
0	1746	6540	106.6919989536
0	1751	6570	106.6859989488
0	1754	6570	106.6859989488
0	1754	6570	106.6859989488
0	1759	6600	106.679998944
0	1762	6600	106.679998944
0	1762	6600	106.679998944
0	1767	6630	106.6739989392
0	1770	6630	106.6739989392
0	1770	6630	106.6739989392
0	1775	6660	106.6679989344
0	1778	6660	106.6679989344
0	1778	6660	106.6679989344
0	1783	6690	106.6619989296
0	1786	6690	106.6619989296
0	1786	6690	106.6619989296
0	1791	6720	106.6559989248
0	1794	6720	106.6559989248
0	1794	6720	106.6559989248
0	1799	6750	106.64999892
0	1802	6750	106.64999892
0	1802	6750	106.64999892
0	1807	6780	106.6439989152
0	1810	6780	106.6439989152
0	1810	6780	106.6439989152
0	1815	6810	106.6379989104
0	1818	6810	106.6379989104
0	1818	6810	106.6379989104
0	1823	6840	106.6319989056
0	1826	6840	106.6319989056
0	1826	6840	106.6319989056
0	1831	6870	106.6259989008
0	1834	6870	106.6259989008
0	1834	6870	106.6259989008
0	1839	6900	106.619998896
0	1842	6900	106.619998896
0	1842	6900	106.619998896
0	1847	6930	106.6139988912
0	1850	6930	106.6139988912
0	1850	6930	106.6139988912
0	1855	6960	106.6079988864
0	1858	6960	106.6079988864
0	1858	6960	106.6079988864
0	1863	6990	106.6019988816
0	1866	6990	106.6019988816
0	1866	6990	106.6019988816
0	1871	7020	106.5959988768
0	1874	7020	106.5959988768
0	1874	7020	106.5959988768
0	1879	7050	106.589998872
0	1882	7050	106.589998872
0	1882	7050	106.589998872
0	1887	7080	106.5839988672
0	1890	7080	106.5839988672
0	1890	7080	106.5839988672
0	1895	7110	106.5779988624
0	1898	7110	106.5779988624
0	1898	7110	106.5779988624
0	1903	7140	106.5719988576
0	1906	7140	106.5719988576
0	1906	7140	106.5719988576
0	1911	7170	106.5659988528
0	1914	7170	106.5659988528
0	1914	7170	106.5659988528
0	1919	7200	106.559998848
0	1922	7200	106.559998848
0	1922	7200	106.559998848
0	1927	7230	106.5539988432
0	1930	7230	106.5539988432
0	1930	7230	106.5539988432
0	1935	7260	106.5479988384
0	1938	7260	106.5479988384
0	1938	7260	106.5479988384
0	1943	7290	106.5419988336
0	1946	7290	106.5419988336
0	1946	7290	106.5419988336
0	1951	7320	106.5359988288
0	1954	7320	106.5359988288
0	1954	7320	106.5359988288
0	1959	7350	106.529998824
0	1962	7350	106.529998824
0	1962	7350	106.529998824
0	1967	7380	106.5239988192
0	1970	7380	106.5239988192
0	1970	7380	106.5239988192
0	1975	7410	106.5179988144
0	1978	7410	106.5179988144
0	1978	7410	106.5179988144
0	1983	7440	106.5119988096
0	1986	7440	106.5119988096
0	1986	7440	106.5119988096
0	1991	7470	106.5059988048
0	1994	7470	106.5059988048
0	1994	7470	106.5059988048
0	1999	7500	106.4999988
0	2002	7500	106.4999988
0	2002	7500	106.4999988
0	2007	7530	106.4939987952
0	2010	7530	106.4939987952
0	2010	7530	106.4939987952
0	2015	7560	106.4879987904
0	2018	7560	106.4879987904
0	2018	7560	106.4879987904
0	2023	7590	106.4819987856
0	2026	7590	106.4819987856
0	2026	7590	106.4819987856
0	2031	7620	106.4759987808
0	2034	7620	106.4759987808
0	2034	7620	106.4759987808
0	2039	7650	106.469998776
0	2042	7650	106.469998776
0	2042	7650	106.469998776
0	2047	7680	106.4639987712
0	2050	7680	106.4639987712
0	2050	7680	106.4639987712
0	2055	7710	106.4579987664
0	2058	7710	106.4579987664
0	2058	7710	106.4579987664
0	2063	7740	106.4519987616
0	2066	7740	106.4519987616
0	2066	7740	106.4519987616
0	2071	7770	106.4459987568
0	2074	7770	106.4459987568
0	2074	7770	106.4459987568
0	2079	7800	106.439998752
0	2082	7800	106.439998752
0	2082	7800	106.439998752
0	2087	7830	106.4339987472
0	2090	7830	106.4339987472
0	2090	7830	106.4339987472
0	2095	7860	106.4279987424
0	2098	7860	106.4279987424
0	2098	7860	106.4279987424
0	2103	7890	106.4219987376
0	2106	7890	106.4219987376
0	2106	7890	106.4219987376
0	2111	7920	106.4159987328
0	2114	7920	106.4159987328
0	2114	7920	106.4159987328
0	2119	7950	106.409998728
0	2122	7950	106.409998728
0	2122	7950	106.409998728
0	2127	7980	106.4039987232
0	2130	7980	106.4039987232
0	2130	7980	106.4039987232
0	2135	8010	106.3979987184
0	2138	8010	106.3979987184
0	2138	8010	106.3979987184
0	2143	8040	106.3919987136
0	2146	8040	106.3919987136
0	2146	8040	106.3919987136
0	2151	8070	106.3859987088
0	2154	8070	106.3859987088
0	2154	8070	106.3859987088
0	2159	8100	106.379998704
0	2162	8100	106.379998704
0	2162	8100	106.379998704
0	2167	8130	106.3739986992
0	2170	8130	106.3739986992
0	2170	8130	106.3739986992
0	2175	8160	106.3679986944
0	2178	8160	106.3679986944
0	2178	8160	106.3679986944
0	2183	8190	106.3619986896
0	2186	8190	106.3619986896
0	2186	8190	106.3619986896
0	2191	8220	106.3559986848
0	2194	8220	106.3559986848
0	2194	8220	106.3559986848
0	2199	8250	106.34999868
0	2202	8250	106.34999868
0	2202	8250	106.34999868
0	2207	8280	106.3439986752
0	2210	8280	106.3439986752
0	2210	8280	106.3439986752
0	2215	8310	106.3379986704
0	2218	8310	106.3379986704
0	2218	8310	106.3379986704
0	2223	8340	106.3319986656
0	2226	8340	106.3319986656
0	2226	8340	106.3319986656
0	2231	8370	106.3259986608
0	2234	8370	106.3259986608
0	2234	8370	106.3259986608
0	2239	8400	106.319998656
0	2242	8400	106.319998656
0	2242	8400	106.319998656
0	2247	8430	106.3139986512
0	2250	8430	106.3139986512
0	2250	8430	106.3139986512
0	2255	8460	106.3079986464
0	2258	8460	106.3079986464
0	2258	8460	106.3079986464
0	2263	8490	106.3019986416
0	2266	8490	106.3019986416
0	2266	8490	106.3019986416
0	2271	8520	106.2959986368
0	2274	8520	106.2959986368
0	2274	8520	106.2959986368
0	2279	8550	106.289998632
0	2282	8550	106.289998632
0	2282	8550	106.289998632
0	2287	8580	106.2839986272
0	2290	8580	106.2839986272
0	2290	8580	106.2839986272
0	2295	8610	106.2779986224
0	2298	8610	106.2779986224
0	2298	8610	106.2779986224
0	2303	8640	106.2719986176
0	2306	8640	106.2719986176
0	2306	8640	106.2719986176
0	2311	8670	106.2659986128
0	2314	8670	106.2659986128
0	2314	8670	106.2659986128
0	2319	8700	106.259998608
0	2322	8700	106.259998608
0	2322	8700	106.259998608
0	2327	8730	106.2539986032
0	2330	8730	106.2539986032
0	2330	8730	106.2539986032
0	2335	8760	106.2479985984
0	2338	8760	106.2479985984
0	2338	8760	106.2479985984
0	2343	8790	106.2419985936
0	2346	8790	106.2419985936
0	2346	8790	106.2419985936
0	2351	8820	106.2359985888
0	2354	8820	106.2359985888
0	2354	8820	106.2359985888
0	2359	8850	106.229998584
0	2362	8850	106.229998584
0	2362	8850	106.229998584
0	2367	8880	106.2239985792
0	2370	8880	106.2239985792
0	2370	8880	106.2239985792
0	2375	8910	106.2179985744
0	2378	8910	106.2179985744
0	2378	8910	106.2179985744
0	2383	8940	106.2119985696
0	2386	8940	106.2119985696
0	2386	8940	106.2119985696
0	2391	8970	106.2059985648
0	2394	8970	106.2059985648
0	2394	8970	106.2059985648
0	2399	9000	106.19999856
0	2402	9000	106.19999856
0	2402	9000	106.19999856
0	2407	9030	106.1939985552
0	2410	9030	106.1939985552
0	2410	9030	106.1939985552
0	2415	9060	106.1879985504
0	2418	9060	106.1879985504
0	2418	9060	106.1879985504
0	2423	9090	106.1819985456
0	2426	9090	106.1819985456
0	2426	9090	106.1819985456
0	2431	9120	106.1759985408
0	2434	9120	106.1759985408
0	2434	9120	106.1759985408
0	2439	9150	106.169998536
0	2442	9150	106.169998536
0	2442	9150	106.169998536
0	2447	9180	106.1639985312
0	2450	9180	106.1639985312
0	2450	9180	106.1639985312
0	2455	9210	106.1579985264
0	2458	9210	106.1579985264
0	2458	9210	106.1579985264
0	2463	9240	106.1519985216
0	2466	9240	106.1519985216
0	2466	9240	106.1519985216
0	2471	9270	106.1459985168
0	2474	9270	106.1459985168
0	2474	9270	106.1459985168
0	2479	9300	106.139998512
0	2482	9300	106.139998512
0	2482	9300	106.139998512
0	2487	9330	106.1339985072
0	2490	9330	106.1339985072
0	2490	9330	106.1339985072
0	2495	9360	106.1279985024
0	2498	9360	106.1279985024
0	2498	9360	106.1279985024
0	2503	9390	106.1219984976
0	2506	9390	106.1219984976
0	2506	9390	106.1219984976
0	2511	9420	106.1159984928
0	2514	9420	106.1159984928
0	2514	9420	106.1159984928
0	2519	9450	106.109998488
0	2522	9450	106.109998488
0	2522	9450	106.109998488
0	2527	9480	106.1039984832
0	2530	9480	106.1039984832
0	2530	9480	106.1039984832
0	2535	9510	106.0979984784
0	2538	9510	106.0979984784
0	2538	9510	106.0979984784
0	2543	9540	106.0919984736
0	2546	9540	106.0919984736
0	2546	9540	106.0919984736
0	2551	9570	106.0859984688
0	2554	9570	106.0859984688
0	2554	9570	106.0859984688
0	2559	9600	106.079998464
0	2562	9600	106.079998464
0	2562	9600	106.079998464
0	2567	9630	106.0739984592
0	2570	9630	106.0739984592
0	2570	9630	106.0739984592
0	2575	9660	106.0679984544
0	2578	9660	106.0679984544
0	2578	9660	106.0679984544
0	2583	9690	106.0619984496
0	2586	9690	106.0619984496
0	2586	9690	106.0619984496
0	2591	9720	106.0559984448
0	2594	9720	106.0559984448
0	2594	9720	106.0559984448
0	2599	9750	106.04999844
0	2602	9750	106.04999844
0	2602	9750	106.04999844
0	2607	9780	106.0439984352
0	2610	9780	106.0439984352
0	2610	9780	106.0439984352
0	2615	9810	106.0379984304
0	2618	9810	106.0379984304
0	2618	9810	106.0379984304
0	2623	9840	106.0319984256
0	2626	9840	106.0319984256
0	2626	9840	106.0319984256
0	2631	9870	106.0259984208
0	2634	9870	106.0259984208
0	2634	9870	106.0259984208
0	2639	9900	106.019998416
0	2642	9900	106.019998416
0	2642	9900	106.019998416
0	2647	9930	106.0139984112
0	2650	9930	106.0139984112
0	2650	9930	106.0139984112
0	2655	9960	106.0079984064
0	2658	9960	106.0079984064
0	2658	9960	106.0079984064
0	2663	9990	106.0019984016
0	2666	9990	106.0019984016
0	2666	9990	106.0019984016
0	2671	10020	105.9959983968
0	2674	10020	105.9959983968
0	2674	10020	105.9959983968
0	2679	10050	105.989998392
0	2682	10050	105.989998392
0	2682	10050	105.989998392
0	2687	10080	105.9839983872
0	2690	10080	105.9839983872
0	2690	10080	105.9839983872
0	2695	10110	105.9779983824
0	2698	10110	105.9779983824
0	2698	10110	105.9779983824
0	2703	10140	105.9719983776
0	2706	10140	105.9719983776
0	2706	10140	105.9719983776
0	2711	10170	105.9659983728
0	2714	10170	105.9659983728
0	2714	10170	105.9659983728
0	2719	10200	105.959998368
0	2722	10200	105.959998368
0	2722	10200	105.959998368
0	2727	10230	105.9539983632
0	2730	10230	105.9539983632
0	2730	10230	105.9539983632
0	2735	10260	105.9479983584
0	2738	10260	105.9479983584
0	2738	10260	105.9479983584
0	2743	10290	105.9419983536
0	2746	10290	105.9419983536
0	2746	10290	105.9419983536
0	2751	10320	105.9359983488
0	2754	10320	105.9359983488
0	2754	10320	105.9359983488
0	2759	10350	105.929998344
0	2762	10350	105.929998344
0	2762	10350	105.929998344
0	2767	10380	105.9239983392
0	2770	10380	105.9239983392
0	2770	10380	105.9239983392
0	2775	10410	105.9179983344
0	2778	10410	105.9179983344
0	2778	10410	105.9179983344
0	2783	10440	105.9119983296
0	2786	10440	105.9119983296
0	2786	10440	105.9119983296
0	2791	10470	105.9059983248
0	2794	10470	105.9059983248
0	2794	10470	105.9059983248
0	2799	10500	105.89999832
0	2802	10500	105.89999832
0	2802	10500	105.89999832
0	2807	10530	105.8939983152
0	2810	10530	105.8939983152
0	2810	10530	105.8939983152
0	2815	10560	105.8879983104
0	2818	10560	105.8879983104
0	2818	10560	105.8879983104
0	2823	10590	105.8819983056
0	2826	10590	105.8819983056
0	2826	10590	105.8819983056
0	2831	10620	105.8759983008
0	2834	10620	105.8759983008
0	2834	10620	105.8759983008
0	2839	10650	105.869998296
0	2842	10650	105.869998296
0	2842	10650	105.869998296
0	2847	10680	105.8639982912
0	2850	10680	105.8639982912
0	2850	10680	105.8639982912
0	2855	10710	105.8579982864
0	2858	10710	105.8579982864
0	2858	10710	105.8579982864
0	2863	10740	105.8519982816
0	2866	10740	105.8519982816
0	2866	10740	105.8519982816
0	2871	10770	105.8459982768
0	2874	10770	105.8459982768
0	2874	10770	105.8459982768
0	2879	10800	105.839998272
0	2882	10800	105.839998272
0	2882	10800	105.839998272
0	2887	10830	105.8339982672
0	2890	10830	105.8339982672
0	2890	10830	105.8339982672
0	2895	10860	105.8279982624
0	2898	10860	105.8279982624
0	2898	10860	105.8279982624
0	2903	10890	105.8219982576
0	2906	10890	105.8219982576
0	2906	10890	105.8219982576
0	2911	10920	105.8159982528
0	2914	10920	105.8159982528
0	2914	10920	105.8159982528
0	2919	10950	105.809998248
0	2922	10950	105.809998248
0	2922	10950	105.809998248
0	2927	10980	105.8039982432
0	2930	10980	105.8039982432
0	2930	10980	105.8039982432
0	2935	11010	105.7979982384
0	2938	11010	105.7979982384
0	2938	11010	105.7979982384
0	2943	11040	105.7919982336
0	2946	11040	105.7919982336
0	2946	11040	105.7919982336
0	2951	11070	105.7859982288
0	2954	11070	105.7859982288
0	2954	11070	105.7859982288
0	2959	11100	105.779998224
0	2962	11100	105.779998224
0	2962	11100	105.779998224
0	2967	11130	105.7739982192
0	2970	11130	105.7739982192
0	2970	11130	105.7739982192
0	2975	11160	105.7679982144
0	2978	11160	105.7679982144
0	2978	11160	105.7679982144
0	2983	11190	105.7619982096
0	2986	11190	105.7619982096
0	2986	11190	105.7619982096
0	2991	11220	105.7559982048
0	2994	11220	105.7559982048
0	2994	11220	105.7559982048
0	2999	11250	105.7499982
0	3002	11250	105.7499982
0	3002	11250	105.7499982
0	3007	11280	105.7439981952
0	3010	11280	105.7439981952
0	3010	11280	105.7439981952
0	3015	11310	105.7379981904
0	3018	11310	105.7379981904
0	3018	11310	105.7379981904
0	3023	11340	105.7319981856
0	3026	11340	105.7319981856
0	3026	11340	105.7319981856
0	3031	11370	105.7259981808
0	3034	11370	105.7259981808
0	3034	11370	105.7259981808
0	3039	11400	105.719998176
0	3042	11400	105.719998176
0	3042	11400	105.719998176
0	3047	11430	105.7139981712
0	3050	11430	105.7139981712
0	3050	11430	105.7139981712
0	3055	11460	105.7079981664
0	3058	11460	105.7079981664
0	3058	11460	105.7079981664
0	3063	11490	105.7019981616
0	3066	11490	105.7019981616
0	3066	11490	105.7019981616
0	3071	11520	105.6959981568
0	3074	11520	105.6959981568
0	3074	11520	105.6959981568
0	3079	11550	105.689998152
0	3082	11550	105.689998152
0	3082	11550	105.689998152
0	3087	11580	105.6839981472
0	3090	11580	105.6839981472
0	3090	11580	105.6839981472
0	3095	11610	105.6779981424
0	3098	11610	105.6779981424
0	3098	11610	105.6779981424
0	3103	11640	105.6719981376
0	3106	11640	105.6719981376
0	3106	11640	105.6719981376
0	3111	11670	105.6659981328
0	3114	11670	105.6659981328
0	3114	11670	105.6659981328
0	3119	11700	105.659998128
0	3122	11700	105.659998128
0	3122	11700	105.659998128
0	3127	11730	105.6539981232
0	3130	11730	105.6539981232
0	3130	11730	105.6539981232
0	3135	11760	105.6479981184
0	3138	11760	105.6479981184
0	3138	11760	105.6479981184
0	3143	11790	105.6419981136
0	3146	11790	105.6419981136
0	3146	11790	105.6419981136
0	3151	11820	105.6359981088
0	3154	11820	105.6359981088
0	3154	11820	105.6359981088
0	3159	11850	105.629998104
0	3162	11850	105.629998104
0	3162	11850	105.629998104
0	3167	11880	105.6239980992
0	3170	11880	105.6239980992
0	3170	11880	105.6239980992
0	3175	11910	105.6179980944
0	3178	11910	105.6179980944
0	3178	11910	105.6179980944
0	3183	11940	105.6119980896
0	3186	11940	105.6119980896
0	3186	11940	105.6119980896
0	3191	11970	105.6059980848
0	3194	11970	105.6059980848
0	3194	11970	105.6059980848
0	3199	12000	105.59999808
0	3202	12000	105.59999808
0	3202	12000	105.59999808
0	3207	12030	105.5939980752
0	3210	12030	105.5939980752
0	3210	12030	105.5939980752
0	3215	12060	105.5879980704
0	3218	12060	105.5879980704
0	3218	12060	105.5879980704
0	3223	12090	105.5819980656
0	3226	12090	105.5819980656
0	3226	12090	105.5819980656
0	3231	12120	105.5759980608
0	3234	12120	105.5759980608
0	3234	12120	105.5759980608
0	3239	12150	105.569998056
0	3242	12150	105.569998056
0	3242	12150	105.569998056
0	3247	12180	105.5639980512
0	3250	12180	105.5639980512
0	3250	12180	105.5639980512
0	3255	12210	105.5579980464
0	3258	12210	105.5579980464
0	3258	12210	105.5579980464
0	3263	12240	105.5519980416
0	3266	12240	105.5519980416
0	3266	12240	105.5519980416
0	3271	12270	105.5459980368
0	3274	12270	105.5459980368
0	3274	12270	105.5459980368
0	3279	12300	105.539998032
0	3282	12300	105.539998032
0	3282	12300	105.539998032
0	3287	12330	105.5339980272
0	3290	12330	105.5339980272
0	3290	12330	105.5339980272
0	3295	12360	105.5279980224
0	3298	12360	105.5279980224
0	3298	12360	105.5279980224
0	3303	12390	105.5219980176
0	3306	12390	105.5219980176
0	3306	12390	105.5219980176
0	3311	12420	105.5159980128
0	3314	12420	105.5159980128
0	3314	12420	105.5159980128
0	3319	12450	105.509998008
0	3322	12450	105.509998008
0	3322	12450	105.509998008
0	3327	12480	105.5039980032
0	3330	12480	105.5039980032
0	3330	12480	105.5039980032
0	3335	12510	105.4979979984
0	3338	12510	105.4979979984
0	3338	12510	105.4979979984
0	3343	12540	105.4919979936
0	3346	12540	105.4919979936
0	3346	12540	105.4919979936
0	3351	12570	105.4859979888
0	3354	12570	105.4859979888
0	3354	12570	105.4859979888
0	3359	12600	105.479997984
0	3362	12600	105.479997984
0	3362	12600	105.479997984
0	3367	12630	105.4739979792
0	3370	12630	105.4739979792
0	3370	12630	105.4739979792
0	3375	12660	105.4679979744
0	3378	12660	105.4679979744
0	3378	12660	105.4679979744
0	3383	12690	105.4619979696
0	3386	12690	105.4619979696
0	3386	12690	105.4619979696
0	3391	12720	105.4559979648
0	3394	12720	105.4559979648
0	3394	12720	105.4559979648
0	3399	12750	105.44999796
0	3402	12750	105.44999796
0	3402	12750	105.44999796
0	3407	12780	105.4439979552
0	3410	12780	105.4439979552
0	3410	12780	105.4439979552
0	3415	12810	105.4379979504
0	3418	12810	105.4379979504
0	3418	12810	105.4379979504
0	3423	12840	105.4319979456
0	3426	12840	105.4319979456
0	3426	12840	105.4319979456
0	3431	12870	105.4259979408
0	3434	12870	105.4259979408
0	3434	12870	105.4259979408
0	3439	12900	105.419997936
0	3442	12900	105.419997936
0	3442	12900	105.419997936
0	3447	12930	105.4139979312
0	3450	12930	105.4139979312
0	3450	12930	105.4139979312
0	3455	12960	105.4079979264
0	3458	12960	105.4079979264
0	3458	12960	105.4079979264
0	3463	12990	105.4019979216
0	3466	12990	105.4019979216
0	3466	12990	105.4019979216
0	3471	13020	105.3959979168
0	3474	13020	105.3959979168
0	3474	13020	105.3959979168
0	3479	13050	105.389997912
0	3482	13050	105.389997912
0	3482	13050	105.389997912
0	3487	13080	105.3839979072
0	3490	13080	105.3839979072
0	3490	13080	105.3839979072
0	3495	13110	105.3779979024
0	3498	13110	105.3779979024
0	3498	13110	105.3779979024
0	3503	13140	105.3719978976
0	3506	13140	105.3719978976
0	3506	13140	105.3719978976
0	3511	13170	105.3659978928
0	3514	13170	105.3659978928
0	3514	13170	105.3659978928
0	3519	13200	105.359997888
0	3522	13200	105.359997888
0	3522	13200	105.359997888
0	3527	13230	105.3539978832
0	3530	13230	105.3539978832
0	3530	13230	105.3539978832
0	3535	13260	105.3479978784
0	3538	13260	105.3479978784
0	3538	13260	105.3479978784
0	3543	13290	105.3419978736
0	3546	13290	105.3419978736
0	3546	13290	105.3419978736
0	3551	13320	105.3359978688
0	3554	13320	105.3359978688
0	3554	13320	105.3359978688
0	3559	13350	105.329997864
0	3562	13350	105.329997864
0	3562	13350	105.329997864
0	3567	13380	105.3239978592
0	3570	13380	105.3239978592
0	3570	13380	105.3239978592
0	3575	13410	105.3179978544
0	3578	13410	105.3179978544
0	3578	13410	105.3179978544
0	3583	13440	105.3119978496
0	3586	13440	105.3119978496
0	3586	13440	105.3119978496
0	3591	13470	105.3059978448
0	3594	13470	105.3059978448
0	3594	13470	105.3059978448
0	3599	13500	105.29999784
0	3602	13500	105.29999784
0	3602	13500	105.29999784
0	3607	13530	105.2939978352
0	3610	13530	105.2939978352
0	3610	13530	105.2939978352
0	3615	13560	105.2879978304
0	3618	13560	105.2879978304
0	3618	13560	105.2879978304
0	3623	13590	105.2819978256
0	3626	13590	105.2819978256
0	3626	13590	105.2819978256
0	3631	13620	105.2759978208
0	3634	13620	105.2759978208
0	3634	13620	105.2759978208
0	3639	13650	105.269997816
0	3642	13650	105.269997816
0	3642	13650	105.269997816
0	3647	13680	105.2639978112
0	3650	13680	105.2639978112
0	3650	13680	105.2639978112
0	3655	13710	105.2579978064
0	3658	13710	105.2579978064
0	3658	13710	105.2579978064
0	3663	13740	105.2519978016
0	3666	13740	105.2519978016
0	3666	13740	105.2519978016
0	3671	13770	105.2459977968
0	3674	13770	105.2459977968
0	3674	13770	105.2459977968
0	3679	13800	105.239997792
0	3682	13800	105.239997792
0	3682	13800	105.239997792
0	3687	13830	105.2339977872
0	3690	13830	105.2339977872
0	3690	13830	105.2339977872
0	3695	13860	105.2279977824
0	3698	13860	105.2279977824
0	3698	13860	105.2279977824
0	3703	13890	105.2219977776
0	3706	13890	105.2219977776
0	3706	13890	105.2219977776
0	3711	13920	105.2159977728
0	3714	13920	105.2159977728
0	3714	13920	105.2159977728
0	3719	13950	105.209997768
0	3722	13950	105.209997768
0	3722	13950	105.209997768
0	3727	13980	105.2039977632
0	3730	13980	105.2039977632
0	3730	13980	105.2039977632
0	3735	14010	105.1979977584
0	3738	14010	105.1979977584
0	3738	14010	105.1979977584
0	3743	14040	105.1919977536
0	3746	14040	105.1919977536
0	3746	14040	105.1919977536
0	3751	14070	105.1859977488
0	3754	14070	105.1859977488
0	3754	14070	105.1859977488
0	3759	14100	105.179997744
0	3762	14100	105.179997744
0	3762	14100	105.179997744
0	3767	14130	105.1739977392
0	3770	14130	105.1739977392
0	3770	14130	105.1739977392
0	3775	14160	105.1679977344
0	3778	14160	105.1679977344
0	3778	14160	105.1679977344
0	3783	14190	105.1619977296
0	3786	14190	105.1619977296
0	3786	14190	105.1619977296
0	3791	14220	105.1559977248
0	3794	14220	105.1559977248
0	3794	14220	105.1559977248
0	3799	14250	105.14999772
0	3802	14250	105.14999772
0	3802	14250	105.14999772
0	3807	14280	105.1439977152
0	3810	14280	105.1439977152
0	3810	14280	105.1439977152
0	3815	14310	105.1379977104
0	3818	14310	105.1379977104
0	3818	14310	105.1379977104
0	3823	14340	105.1319977056
0	3826	14340	105.1319977056
0	3826	14340	105.1319977056
0	3831	14370	105.1259977008
0	3834	14370	105.1259977008
0	3834	14370	105.1259977008
0	3839	14400	105.119997696
0	3842	14400	105.119997696
0	3842	14400	105.119997696
0	3847	14430	105.1139976912
0	3850	14430	105.1139976912
0	3850	14430	105.1139976912
0	3855	14460	105.1079976864
0	3858	14460	105.1079976864
0	3858	14460	105.1079976864
0	3863	14490	105.1019976816
0	3866	14490	105.1019976816
0	3866	14490	105.1019976816
0	3871	14520	105.0959976768
0	3874	14520	105.0959976768
0	3874	14520	105.0959976768
0	3879	14550	105.089997672
0	3882	14550	105.089997672
0	3882	14550	105.089997672
0	3887	14580	105.0839976672
0	3890	14580	105.0839976672
0	3890	14580	105.0839976672
0	3895	14610	105.0779976624
0	3898	14610	105.0779976624
0	3898	14610	105.0779976624
0	3903	14640	105.0719976576
0	3906	14640	105.0719976576
0	3906	14640	105.0719976576
0	3911	14670	105.0659976528
0	3914	14670	105.0659976528
0	3914	14670	105.0659976528
0	3919	14700	105.059997648
0	3922	14700	105.059997648
0	3922	14700	105.059997648
0	3927	14730	105.0539976432
0	3930	14730	105.0539976432
0	3930	14730	105.0539976432
0	3935	14760	105.0479976384
0	3938	14760	105.0479976384
0	3938	14760	105.0479976384
0	3943	14790	105.0419976336
0	3946	14790	105.0419976336
0	3946	14790	105.0419976336
0	3951	14820	105.0359976288
0	3954	14820	105.0359976288
0	3954	14820	105.0359976288
0	3959	14850	105.029997624
0	3962	14850	105.029997624
0	3962	14850	105.029997624
0	3967	14880	105.0239976192
0	3970	14880	105.0239976192
0	3970	14880	105.0239976192
0	3975	14910	105.0179976144
0	3978	14910	105.0179976144
0	3978	14910	105.0179976144
0	3983	14940	105.0119976096
0	3986	14940	105.0119976096
0	3986	14940	105.0119976096
0	3991	14970	105.0059976048
0	3994	14970	105.0059976048
0	3994	14970	105.0059976048
0	3999	15000	104.9999976
0	4002	15000	104.9999976
0	4002	15000	104.9999976
0	4007	15030	104.9939975952
0	4010	15030	104.9939975952
0	4010	15030	104.9939975952
0	4015	15060	104.9879975904
0	4018	15060	104.9879975904
0	4018	15060	104.9879975904
0	4023	15090	104.9819975856
0	4026	15090	104.9819975856
0	4026	15090	104.9819975856
0	4031	15120	104.9759975808
0	4034	15120	104.9759975808
0	4034	15120	104.9759975808
0	4039	15150	104.969997576
0	4042	15150	104.969997576
0	4042	15150	104.969997576
0	4047	15180	104.9639975712
0	4050	15180	104.9639975712
0	4050	15180	104.9639975712
0	4055	15210	104.9579975664
0	4058	15210	104.9579975664
0	4058	15210	104.9579975664
0	4063	15240	104.9519975616
0	4066	15240	104.9519975616
0	4066	15240	104.9519975616
0	4071	15270	104.9459975568
0	4074	15270	104.9459975568
0	4074	15270	104.9459975568
0	4079	15300	104.939997552
0	4082	15300	104.939997552
0	4082	15300	104.939997552
0	4087	15330	104.9339975472
0	4090	15330	104.9339975472
0	4090	15330	104.9339975472
0	4095	15360	104.9279975424
0	4098	15360	104.9279975424
0	4098	15360	104.9279975424
0	4103	15390	104.9219975376
0	4106	15390	104.9219975376
0	4106	15390	104.9219975376
0	4111	15420	104.9159975328
0	4114	15420	104.9159975328
0	4114	15420	104.9159975328
0	4119	15450	104.909997528
0	4122	15450	104.909997528
0	4122	15450	104.909997528
0	4127	15480	104.9039975232
0	4130	15480	104.9039975232
0	4130	15480	104.9039975232
0	4135	15510	104.8979975184
0	4138	15510	104.8979975184
0	4138	15510	104.8979975184
0	4143	15540	104.8919975136
0	4146	15540	104.8919975136
0	4146	15540	104.8919975136
0	4151	15570	104.8859975088
0	4154	15570	104.8859975088
0	4154	15570	104.8859975088
0	4159	15600	104.879997504
0	4162	15600	104.879997504
0	4162	15600	104.879997504
0	4167	15630	104.8739974992
0	4170	15630	104.8739974992
0	4170	15630	104.8739974992
0	4175	15660	104.8679974944
0	4178	15660	104.8679974944
0	4178	15660	104.8679974944
0	4183	15690	104.8619974896
0	4186	15690	104.8619974896
0	4186	15690	104.8619974896
0	4191	15720	104.8559974848
0	4194	15720	104.8559974848
0	4194	15720	104.8559974848
0	4199	15750	104.84999748
0	4202	15750	104.84999748
0	4202	15750	104.84999748
0	4207	15780	104.8439974752
0	4210	15780	104.8439974752
0	4210	15780	104.8439974752
0	4215	15810	104.8379974704
0	4218	15810	104.8379974704
0	4218	15810	104.8379974704
0	4223	15840	104.8319974656
0	4226	15840	104.8319974656
0	4226	15840	104.8319974656
0	4231	15870	104.8259974608
0	4234	15870	104.8259974608
0	4234	15870	104.8259974608
0	4239	15900	104.819997456
0	4242	15900	104.819997456
0	4242	15900	104.819997456
0	4247	15930	104.8139974512
0	4250	15930	104.8139974512
0	4250	15930	104.8139974512
0	4255	15960	104.8079974464
0	4258	15960	104.8079974464
0	4258	15960	104.8079974464
0	4263	15990	104.8019974416
0	4266	15990	104.8019974416
0	4266	15990	104.8019974416
0	4271	16020	104.7959974368
0	4274	16020	104.7959974368
0	4274	16020	104.7959974368
0	4279	16050	104.789997432
0	4282	16050	104.789997432
0	4282	16050	104.789997432
0	4287	16080	104.7839974272
0	4290	16080	104.7839974272
0	4290	16080	104.7839974272
0	4295	16110	104.7779974224
0	4298	16110	104.7779974224
0	4298	16110	104.7779974224
0	4303	16140	104.7719974176
0	4306	16140	104.7719974176
0	4306	16140	104.7719974176
0	4311	16170	104.7659974128
0	4314	16170	104.7659974128
0	4314	16170	104.7659974128
0	4319	16200	104.759997408
0	4322	16200	104.759997408
0	4322	16200	104.759997408
0	4327	16230	104.7539974032
0	4330	16230	104.7539974032
0	4330	16230	104.7539974032
0	4335	16260	104.7479973984
0	4338	16260	104.7479973984
0	4338	16260	104.7479973984
0	4343	16290	104.7419973936
0	4346	16290	104.7419973936
0	4346	16290	104.7419973936
0	4351	16320	104.7359973888
0	4354	16320	104.7359973888
0	4354	16320	104.7359973888
0	4359	16350	104.729997384
0	4362	16350	104.729997384
0	4362	16350	104.729997384
0	4367	16380	104.7239973792
0	4370	16380	104.7239973792
0	4370	16380	104.7239973792
0	4375	16410	104.7179973744
0	4378	16410	104.7179973744
0	4378	16410	104.7179973744
0	4383	16440	104.7119973696
0	4386	16440	104.7119973696
0	4386	16440	104.7119973696
0	4391	16470	104.7059973648
0	4394	16470	104.7059973648
0	4394	16470	104.7059973648
0	4399	16500	104.69999736
0	4402	16500	104.69999736
0	4402	16500	104.69999736
0	4407	16530	104.6939973552
0	4410	16530	104.6939973552
0	4410	16530	104.6939973552
0	4415	16560	104.6879973504
0	4418	16560	104.6879973504
0	4418	16560	104.6879973504
0	4423	16590	104.6819973456
0	4426	16590	104.6819973456
0	4426	16590	104.6819973456
0	4431	16620	104.6759973408
0	4434	16620	104.6759973408
0	4434	16620	104.6759973408
0	4439	16650	104.669997336
0	4442	16650	104.669997336
0	4442	16650	104.669997336
0	4447	16680	104.6639973312
0	4450	16680	104.6639973312
0	4450	16680	104.6639973312
0	4455	16710	104.6579973264
0	4458	16710	104.6579973264
0	4458	16710	104.6579973264
0	4463	16740	104.6519973216
0	4466	16740	104.6519973216
0	4466	16740	104.6519973216
0	4471	16770	104.6459973168
0	4474	16770	104.6459973168
0	4474	16770	104.6459973168
0	4479	16800	104.639997312
0	4482	16800	104.639997312
0	4482	16800	104.639997312
0	4487	16830	104.6339973072
0	4490	16830	104.6339973072
0	4490	16830	104.6339973072
0	4495	16860	104.6279973024
0	4498	16860	104.6279973024
0	4498	16860	104.6279973024
0	4503	16890	104.6219972976
0	4506	16890	104.6219972976
0	4506	16890	104.6219972976
0	4511	16920	104.6159972928
0	4514	16920	104.6159972928
0	4514	16920	104.6159972928
0	4519	16950	104.609997288
0	4522	16950	104.609997288
0	4522	16950	104.609997288
0	4527	16980	104.6039972832
0	4530	16980	104.6039972832
0	4530	16980	104.6039972832
0	4535	17010	104.5979972784
0	4538	17010	104.5979972784
0	4538	17010	104.5979972784
0	4543	17040	104.5919972736
0	4546	17040	104.5919972736
0	4546	17040	104.5919972736
0	4551	17070	104.5859972688
0	4554	17070	104.5859972688
0	4554	17070	104.5859972688
0	4559	17100	104.579997264
0	4562	17100	104.579997264
0	4562	17100	104.579997264
0	4567	17130	104.5739972592
0	4570	17130	104.5739972592
0	4570	17130	104.5739972592
0	4575	17160	104.5679972544
0	4578	17160	104.5679972544
0	4578	17160	104.5679972544
0	4583	17190	104.5619972496
0	4586	17190	104.5619972496
0	4586	17190	104.5619972496
0	4591	17220	104.5559972448
0	4594	17220	104.5559972448
0	4594	17220	104.5559972448
0	4599	17250	104.54999724
0	4602	17250	104.54999724
0	4602	17250	104.54999724
0	4607	17280	104.5439972352
0	4610	17280	104.5439972352
0	4610	17280	104.5439972352
0	4615	17310	104.5379972304
0	4618	17310	104.5379972304
0	4618	17310	104.5379972304
0	4623	17340	104.5319972256
0	4626	17340	104.5319972256
0	4626	17340	104.5319972256
0	4631	17370	104.5259972208
0	4634	17370	104.5259972208
0	4634	17370	104.5259972208
0	4639	17400	104.519997216
0	4642	17400	104.519997216
0	4642	17400	104.519997216
0	4647	17430	104.5139972112
0	4650	17430	104.5139972112
0	4650	17430	104.5139972112
0	4655	17460	104.5079972064
0	4658	17460	104.5079972064
0	4658	17460	104.5079972064
0	4663	17490	104.5019972016
0	4666	17490	104.5019972016
0	4666	17490	104.5019972016
0	4671	17520	104.4959971968
0	4674	17520	104.4959971968
0	4674	17520	104.4959971968
0	4679	17550	104.489997192
0	4682	17550	104.489997192
0	4682	17550	104.489997192
0	4687	17580	104.4839971872
0	4690	17580	104.4839971872
0	4690	17580	104.4839971872
0	4695	17610	104.4779971824
0	4698	17610	104.4779971824
0	4698	17610	104.4779971824
0	4703	17640	104.4719971776
0	4706	17640	104.4719971776
0	4706	17640	104.4719971776
0	4711	17670	104.4659971728
0	4714	17670	104.4659971728
0	4714	17670	104.4659971728
0	4719	17700	104.459997168
0	4722	17700	104.459997168
0	4722	17700	104.459997168
0	4727	17730	104.4539971632
0	4730	17730	104.4539971632
0	4730	17730	104.4539971632
0	4735	17760	104.4479971584
0	4738	17760	104.4479971584
0	4738	17760	104.4479971584
0	4743	17790	104.4419971536
0	4746	17790	104.4419971536
0	4746	17790	104.4419971536
0	4751	17820	104.4359971488
0	4754	17820	104.4359971488
0	4754	17820	104.4359971488
0	4759	17850	104.429997144
0	4762	17850	104.429997144
0	4762	17850	104.429997144
0	4767	17880	104.4239971392
0	4770	17880	104.4239971392
0	4770	17880	104.4239971392
0	4775	17910	104.4179971344
0	4778	17910	104.4179971344
0	4778	17910	104.4179971344
0	4783	17940	104.4119971296
0	4786	17940	104.4119971296
0	4786	17940	104.4119971296
0	4791	17970	104.4059971248
0	4794	17970	104.4059971248
0	4794	17970	104.4059971248
0	4799	18000	104.39999712
0	4802	18000	104.39999712
0	4802	18000	104.39999712
0	4807	18030	104.3939971152
0	4810	18030	104.3939971152
0	4810	18030	104.3939971152
0	4815	18060	104.3879971104
0	4818	18060	104.3879971104
0	4818	18060	104.3879971104
0	4823	18090	104.3819971056
0	4826	18090	104.3819971056
0	4826	18090	104.3819971056
0	4831	18120	104.3759971008
0	4834	18120	104.3759971008
0	4834	18120	104.3759971008
0	4839	18150	104.369997096
0	4842	18150	104.369997096
0	4842	18150	104.369997096
0	4847	18180	104.3639970912
0	4850	18180	104.3639970912
0	4850	18180	104.3639970912
0	4855	18210	104.3579970864
0	4858	18210	104.3579970864
0	4858	18210	104.3579970864
0	4863	18240	104.3519970816
0	4866	18240	104.3519970816
0	4866	18240	104.3519970816
0	4871	18270	104.3459970768
0	4874	18270	104.3459970768
0	4874	18270	104.3459970768
0	4879	18300	104.339997072
0	4882	18300	104.339997072
0	4882	18300	104.339997072
0	4887	18330	104.3339970672
0	4890	18330	104.3339970672
0	4890	18330	104.3339970672
0	4895	18360	104.3279970624
0	4898	18360	104.3279970624
0	4898	18360	104.3279970624
0	4903	18390	104.3219970576
0	4906	18390	104.3219970576
0	4906	18390	104.3219970576
0	4911	18420	104.3159970528
0	4914	18420	104.3159970528
0	4914	18420	104.3159970528
0	4919	18450	104.309997048
0	4922	18450	104.309997048
0	4922	18450	104.309997048
0	4927	18480	104.3039970432
0	4930	18480	104.3039970432
0	4930	18480	104.3039970432
0	4935	18510	104.2979970384
0	4938	18510	104.2979970384
0	4938	18510	104.2979970384
0	4943	18540	104.2919970336
0	4946	18540	104.2919970336
0	4946	18540	104.2919970336
0	4951	18570	104.2859970288
0	4954	18570	104.2859970288
0	4954	18570	104.2859970288
0	4959	18600	104.279997024
0	4962	18600	104.279997024
0	4962	18600	104.279997024
0	4967	18630	104.2739970192
0	4970	18630	104.2739970192
0	4970	18630	104.2739970192
0	4975	18660	104.2679970144
0	4978	18660	104.2679970144
0	4978	18660	104.2679970144
0	4983	18690	104.2619970096
0	4986	18690	104.2619970096
0	4986	18690	104.2619970096
0	4991	18720	104.2559970048
0	4994	18720	104.2559970048
0	4994	18720	104.2559970048
0	4999	18750	104.249997
0	5002	18750	104.249997
0	5002	18750	104.249997
0	5007	18780	104.2439969952
0	5010	18780	104.2439969952
0	5010	18780	104.2439969952
0	5015	18810	104.2379969904
0	5018	18810	104.2379969904
0	5018	18810	104.2379969904
0	5023	18840	104.2319969856
0	5026	18840	104.2319969856
0	5026	18840	104.2319969856
0	5031	18870	104.2259969808
0	5034	18870	104.2259969808
0	5034	18870	104.2259969808
0	5039	18900	104.219996976
0	5042	18900	104.219996976
0	5042	18900	104.219996976
0	5047	18930	104.2139969712
0	5050	18930	104.2139969712
0	5050	18930	104.2139969712
0	5055	18960	104.2079969664
0	5058	18960	104.2079969664
0	5058	18960	104.2079969664
0	5063	18990	104.2019969616
0	5066	18990	104.2019969616
0	5066	18990	104.2019969616
0	5071	19020	104.1959969568
0	5074	19020	104.1959969568
0	5074	19020	104.1959969568
0	5079	19050	104.189996952
0	5082	19050	104.189996952
0	5082	19050	104.189996952
0	5087	19080	104.1839969472
0	5090	19080	104.1839969472
0	5090	19080	104.1839969472
0	5095	19110	104.1779969424
0	5098	19110	104.1779969424
0	5098	19110	104.1779969424
0	5103	19140	104.1719969376
0	5106	19140	104.1719969376
0	5106	19140	104.1719969376
0	5111	19170	104.1659969328
0	5114	19170	104.1659969328
0	5114	19170	104.1659969328
0	5119	19200	104.159996928
0	5122	19200	104.159996928
0	5122	19200	104.159996928
0	5127	19230	104.1539969232
0	5130	19230	104.1539969232
0	5130	19230	104.1539969232
0	5135	19260	104.1479969184
0	5138	19260	104.1479969184
0	5138	19260	104.1479969184
0	5143	19290	104.1419969136
0	5146	19290	104.1419969136
0	5146	19290	104.1419969136
0	5151	19320	104.1359969088
0	5154	19320	104.1359969088
0	5154	19320	104.1359969088
0	5159	19350	104.129996904
0	5162	19350	104.129996904
0	5162	19350	104.129996904
0	5167	19380	104.1239968992
0	5170	19380	104.1239968992
0	5170	19380	104.1239968992
0	5175	19410	104.1179968944
0	5178	19410	104.1179968944
0	5178	19410	104.1179968944
0	5183	19440	104.1119968896
0	5186	19440	104.1119968896
0	5186	19440	104.1119968896
0	5191	19470	104.1059968848
0	5194	19470	104.1059968848
0	5194	19470	104.1059968848
0	5199	19500	104.09999688
0	5202	19500	104.09999688
0	5202	19500	104.09999688
0	5207	19530	104.0939968752
0	5210	19530	104.0939968752
0	5210	19530	104.0939968752
0	5215	19560	104.0879968704
0	5218	19560	104.0879968704
0	5218	19560	104.0879968704
0	5223	19590	104.0819968656
0	5226	19590	104.0819968656
0	5226	19590	104.0819968656
0	5231	19620	104.0759968608
0	5234	19620	104.0759968608
0	5234	19620	104.0759968608
0	5239	19650	104.069996856
0	5242	19650	104.069996856
0	5242	19650	104.069996856
0	5247	19680	104.0639968512
0	5250	19680	104.0639968512
0	5250	19680	104.0639968512
0	5255	19710	104.0579968464
0	5258	19710	104.0579968464
0	5258	19710	104.0579968464
0	5263	19740	104.0519968416
0	5266	19740	104.0519968416
0	5266	19740	104.0519968416
0	5271	19770	104.0459968368
0	5274	19770	104.0459968368
0	5274	19770	104.0459968368
0	5279	19800	104.039996832
0	5282	19800	104.039996832
0	5282	19800	104.039996832
0	5287	19830	104.0339968272
0	5290	19830	104.0339968272
0	5290	19830	104.0339968272
0	5295	19860	104.0279968224
0	5298	19860	104.0279968224
0	5298	19860	104.0279968224
0	5303	19890	104.0219968176
0	5306	19890	104.0219968176
0	5306	19890	104.0219968176
0	5311	19920	104.0159968128
0	5314	19920	104.0159968128
0	5314	19920	104.0159968128
0	5319	19950	104.009996808
0	5322	19950	104.009996808
0	5322	19950	104.009996808
0	5327	19980	104.0039968032
0	5330	19980	104.0039968032
0	5330	19980	104.0039968032
0	5335	20010	103.9979967984
0	5338	20010	103.9979967984
0	5338	20010	103.9979967984
0	5343	20040	103.9919967936
0	5346	20040	103.9919967936
0	5346	20040	103.9919967936
0	5351	20070	103.9859967888
0	5354	20070	103.9859967888
0	5354	20070	103.9859967888
0	5359	20100	103.979996784
0	5362	20100	103.979996784
0	5362	20100	103.979996784
0	5367	20130	103.9739967792
0	5370	20130	103.9739967792
0	5370	20130	103.9739967792
0	5375	20160	103.9679967744
0	5378	20160	103.9679967744
0	5378	20160	103.9679967744
0	5383	20190	103.9619967696
0	5386	20190	103.9619967696
0	5386	20190	103.9619967696
0	5391	20220	103.9559967648
0	5394	20220	103.9559967648
0	5394	20220	103.9559967648
0	5399	20250	103.94999676
0	5402	20250	103.94999676
0	5402	20250	103.94999676
0	5407	20280	103.9439967552
0	5410	20280	103.9439967552
0	5410	20280	103.9439967552
0	5415	20310	103.9379967504
0	5418	20310	103.9379967504
0	5418	20310	103.9379967504
0	5423	20340	103.9319967456
0	5426	20340	103.9319967456
0	5426	20340	103.9319967456
0	5431	20370	103.9259967408
0	5434	20370	103.9259967408
0	5434	20370	103.9259967408
0	5439	20400	103.919996736
0	5442	20400	103.919996736
0	5442	20400	103.919996736
0	5447	20430	103.9139967312
0	5450	20430	103.9139967312
0	5450	20430	103.9139967312
0	5455	20460	103.9079967264
0	5458	20460	103.9079967264
0	5458	20460	103.9079967264
0	5463	20490	103.9019967216
0	5466	20490	103.9019967216
0	5466	20490	103.9019967216
0	5471	20520	103.8959967168
0	5474	20520	103.8959967168
0	5474	20520	103.8959967168
0	5479	20550	103.889996712
0	5482	20550	103.889996712
0	5482	20550	103.889996712
0	5487	20580	103.8839967072
0	5490	20580	103.8839967072
0	5490	20580	103.8839967072
0	5495	20610	103.8779967024
0	5498	20610	103.8779967024
0	5498	20610	103.8779967024
0	5503	20640	103.8719966976
0	5506	20640	103.8719966976
0	5506	20640	103.8719966976
0	5511	20670	103.8659966928
0	5514	20670	103.8659966928
0	5514	20670	103.8659966928
0	5519	20700	103.859996688
0	5522	20700	103.859996688
0	5522	20700	103.859996688
0	5527	20730	103.8539966832
0	5530	20730	103.8539966832
0	5530	20730	103.8539966832
0	5535	20760	103.8479966784
0	5538	20760	103.8479966784
0	5538	20760	103.8479966784
0	5543	20790	103.8419966736
0	5546	20790	103.8419966736
0	5546	20790	103.8419966736
0	5551	20820	103.8359966688
0	5554	20820	103.8359966688
0	5554	20820	103.8359966688
0	5559	20850	103.829996664
0	5562	20850	103.829996664
0	5562	20850	103.829996664
0	5567	20880	103.8239966592
0	5570	20880	103.8239966592
0	5570	20880	103.8239966592
0	5575	20910	103.8179966544
0	5578	20910	103.8179966544
0	5578	20910	103.8179966544
0	5583	20940	103.8119966496
0	5586	20940	103.8119966496
0	5586	20940	103.8119966496
0	5591	20970	103.8059966448
0	5594	20970	103.8059966448
0	5594	20970	103.8059966448
0	5599	21000	103.79999664
0	5602	21000	103.79999664
0	5602	21000	103.79999664
0	5607	21030	103.7939966352
0	5610	21030	103.7939966352
0	5610	21030	103.7939966352
0	5615	21060	103.7879966304
0	5618	21060	103.7879966304
0	5618	21060	103.7879966304
0	5623	21090	103.7819966256
0	5626	21090	103.7819966256
0	5626	21090	103.7819966256
0	5631	21120	103.7759966208
0	5634	21120	103.7759966208
0	5634	21120	103.7759966208
0	5639	21150	103.769996616
0	5642	21150	103.769996616
0	5642	21150	103.769996616
0	5647	21180	103.7639966112
0	5650	21180	103.7639966112
0	5650	21180	103.7639966112
0	5655	21210	103.7579966064
0	5658	21210	103.7579966064
0	5658	21210	103.7579966064
0	5663	21240	103.7519966016
0	5666	21240	103.7519966016
0	5666	21240	103.7519966016
0	5671	21270	103.7459965968
0	5674	21270	103.7459965968
0	5674	21270	103.7459965968
0	5679	21300	103.739996592
0	5682	21300	103.739996592
0	5682	21300	103.739996592
0	5687	21330	103.7339965872
0	5690	21330	103.7339965872
0	5690	21330	103.7339965872
0	5695	21360	103.7279965824
0	5698	21360	103.7279965824
0	5698	21360	103.7279965824
0	5703	21390	103.7219965776
0	5706	21390	103.7219965776
0	5706	21390	103.7219965776
0	5711	21420	103.7159965728
0	5714	21420	103.7159965728
0	5714	21420	103.7159965728
0	5719	21450	103.709996568
0	5722	21450	103.709996568
0	5722	21450	103.709996568
0	5727	21480	103.7039965632
0	5730	21480	103.7039965632
0	5730	21480	103.7039965632
0	5735	21510	103.6979965584
0	5738	21510	103.6979965584
0	5738	21510	103.6979965584
0	5743	21540	103.6919965536
0	5746	21540	103.6919965536
0	5746	21540	103.6919965536
0	5751	21570	103.6859965488
0	5754	21570	103.6859965488
0	5754	21570	103.6859965488
0	5759	21600	103.679996544
0	5762	21600	103.679996544
0	5762	21600	103.679996544
0	5767	21630	103.6739965392
0	5770	21630	103.6739965392
0	5770	21630	103.6739965392
0	5775	21660	103.6679965344
0	5778	21660	103.6679965344
0	5778	21660	103.6679965344
0	5783	21690	103.6619965296
0	5786	21690	103.6619965296
0	5786	21690	103.6619965296
0	5791	21720	103.6559965248
0	5794	21720	103.6559965248
0	5794	21720	103.6559965248
0	5799	21750	103.64999652
0	5802	21750	103.64999652
0	5802	21750	103.64999652
0	5807	21780	103.6439965152
0	5810	21780	103.6439965152
0	5810	21780	103.6439965152
0	5815	21810	103.6379965104
0	5818	21810	103.6379965104
0	5818	21810	103.6379965104
0	5823	21840	103.6319965056
0	5826	21840	103.6319965056
0	5826	21840	103.6319965056
0	5831	21870	103.6259965008
0	5834	21870	103.6259965008
0	5834	21870	103.6259965008
0	5839	21900	103.619996496
0	5842	21900	103.619996496
0	5842	21900	103.619996496
0	5847	21930	103.6139964912
0	5850	21930	103.6139964912
0	5850	21930	103.6139964912
0	5855	21960	103.6079964864
0	5858	21960	103.6079964864
0	5858	21960	103.6079964864
0	5863	21990	103.6019964816
0	5866	21990	103.6019964816
0	5866	21990	103.6019964816
0	5871	22020	103.5959964768
0	5874	22020	103.5959964768
0	5874	22020	103.5959964768
0	5879	22050	103.589996472
0	5882	22050	103.589996472
0	5882	22050	103.589996472
0	5887	22080	103.5839964672
0	5890	22080	103.5839964672
0	5890	22080	103.5839964672
0	5895	22110	103.5779964624
0	5898	22110	103.5779964624
0	5898	22110	103.5779964624
0	5903	22140	103.5719964576
0	5906	22140	103.5719964576
0	5906	22140	103.5719964576
0	5911	22170	103.5659964528
0	5914	22170	103.5659964528
0	5914	22170	103.5659964528
0	5919	22200	103.559996448
0	5922	22200	103.559996448
0	5922	22200	103.559996448
0	5927	22230	103.5539964432
0	5930	22230	103.5539964432
0	5930	22230	103.5539964432
0	5935	22260	103.5479964384
0	5938	22260	103.5479964384
0	5938	22260	103.5479964384
0	5943	22290	103.5419964336
0	5946	22290	103.5419964336
0	5946	22290	103.5419964336
0	5951	22320	103.5359964288
0	5954	22320	103.5359964288
0	5954	22320	103.5359964288
0	5959	22350	103.529996424
0	5962	22350	103.529996424
0	5962	22350	103.529996424
0	5967	22380	103.5239964192
0	5970	22380	103.5239964192
0	5970	22380	103.5239964192
0	5975	22410	103.5179964144
0	5978	22410	103.5179964144
0	5978	22410	103.5179964144
0	5983	22440	103.5119964096
0	5986	22440	103.5119964096
0	5986	22440	103.5119964096
0	5991	22470	103.5059964048
0	5994	22470	103.5059964048
0	5994	22470	103.5059964048
0	5999	22500	103.4999964
0	6002	22500	103.4999964
0	6002	22500	103.4999964
0	6007	22530	103.4939963952
0	6010	22530	103.4939963952
0	6010	22530	103.4939963952
0	6015	22560	103.4879963904
0	6018	22560	103.4879963904
0	6018	22560	103.4879963904
0	6023	22590	103.4819963856
0	6026	22590	103.4819963856
0	6026	22590	103.4819963856
0	6031	22620	103.4759963808
0	6034	22620	103.4759963808
0	6034	22620	103.4759963808
0	6039	22650	103.469996376
0	6042	22650	103.469996376
0	6042	22650	103.469996376
0	6047	22680	103.4639963712
0	6050	22680	103.4639963712
0	6050	22680	103.4639963712
0	6055	22710	103.4579963664
0	6058	22710	103.4579963664
0	6058	22710	103.4579963664
0	6063	22740	103.4519963616
0	6066	22740	103.4519963616
0	6066	22740	103.4519963616
0	6071	22770	103.4459963568
0	6074	22770	103.4459963568
0	6074	22770	103.4459963568
0	6079	22800	103.439996352
0	6082	22800	103.439996352
0	6082	22800	103.439996352
0	6087	22830	103.4339963472
0	6090	22830	103.4339963472
0	6090	22830	103.4339963472
0	6095	22860	103.4279963424
0	6098	22860	103.4279963424
0	6098	22860	103.4279963424
0	6103	22890	103.4219963376
0	6106	22890	103.4219963376
0	6106	22890	103.4219963376
0	6111	22920	103.4159963328
0	6114	22920	103.4159963328
0	6114	22920	103.4159963328
0	6119	22950	103.409996328
0	6122	22950	103.409996328
0	6122	22950	103.409996328
0	6127	22980	103.4039963232
0	6130	22980	103.4039963232
0	6130	22980	103.4039963232
0	6135	23010	103.3979963184
0	6138	23010	103.3979963184
0	6138	23010	103.3979963184
0	6143	23040	103.3919963136
0	6146	23040	103.3919963136
0	6146	23040	103.3919963136
0	6151	23070	103.3859963088
0	6154	23070	103.3859963088
0	6154	23070	103.3859963088
0	6159	23100	103.379996304
0	6162	23100	103.379996304
0	6162	23100	103.379996304
0	6167	23130	103.3739962992
0	6170	23130	103.3739962992
0	6170	23130	103.3739962992
0	6175	23160	103.3679962944
0	6178	23160	103.3679962944
0	6178	23160	103.3679962944
0	6183	23190	103.3619962896
0	6186	23190	103.3619962896
0	6186	23190	103.3619962896
0	6191	23220	103.3559962848
0	6194	23220	103.3559962848
0	6194	23220	103.3559962848
0	6199	23250	103.34999628
0	6202	23250	103.34999628
0	6202	23250	103.34999628
0	6207	23280	103.3439962752
0	6210	23280	103.3439962752
0	6210	23280	103.3439962752
0	6215	23310	103.3379962704
0	6218	23310	103.3379962704
0	6218	23310	103.3379962704
0	6223	23340	103.3319962656
0	6226	23340	103.3319962656
0	6226	23340	103.3319962656
0	6231	23370	103.3259962608
0	6234	23370	103.3259962608
0	6234	23370	103.3259962608
0	6239	23400	103.319996256
0	6242	23400	103.319996256
0	6242	23400	103.319996256
0	6247	23430	103.3139962512
0	6250	23430	103.3139962512
0	6250	23430	103.3139962512
0	6255	23460	103.3079962464
0	6258	23460	103.3079962464
0	6258	23460	103.3079962464
0	6263	23490	103.3019962416
0	6266	23490	103.3019962416
0	6266	23490	103.3019962416
0	6271	23520	103.2959962368
0	6274	23520	103.2959962368
0	6274	23520	103.2959962368
0	6279	23550	103.289996232
0	6282	23550	103.289996232
0	6282	23550	103.289996232
0	6287	23580	103.2839962272
0	6290	23580	103.2839962272
0	6290	23580	103.2839962272
0	6295	23610	103.2779962224
0	6298	23610	103.2779962224
0	6298	23610	103.2779962224
0	6303	23640	103.2719962176
0	6306	23640	103.2719962176
0	6306	23640	103.2719962176
0	6311	23670	103.2659962128
0	6314	23670	103.2659962128
0	6314	23670	103.2659962128
0	6319	23700	103.259996208
0	6322	23700	103.259996208
0	6322	23700	103.259996208
0	6327	23730	103.2539962032
0	6330	23730	103.2539962032
0	6330	23730	103.2539962032
0	6335	23760	103.2479961984
0	6338	23760	103.2479961984
0	6338	23760	103.2479961984
0	6343	23790	103.2419961936
0	6346	23790	103.2419961936
0	6346	23790	103.2419961936
0	6351	23820	103.2359961888
0	6354	23820	103.2359961888
0	6354	23820	103.2359961888
0	6359	23850	103.229996184
0	6362	23850	103.229996184
0	6362	23850	103.229996184
0	6367	23880	103.2239961792
0	6370	23880	103.2239961792
0	6370	23880	103.2239961792
0	6375	23910	103.2179961744
0	6378	23910	103.2179961744
0	6378	23910	103.2179961744
0	6383	23940	103.2119961696
0	6386	23940	103.2119961696
0	6386	23940	103.2119961696
0	6391	23970	103.2059961648
0	6394	23970	103.2059961648
0	6394	23970	103.2059961648
0	6399	24000	103.19999616
0	6402	24000	103.19999616
0	6402	24000	103.19999616
0	6407	24030	103.1939961552
0	6410	24030	103.1939961552
0	6410	24030	103.1939961552
0	6415	24060	103.1879961504
0	6418	24060	103.1879961504
0	6418	24060	103.1879961504
0	6423	24090	103.1819961456
0	6426	24090	103.1819961456
0	6426	24090	103.1819961456
0	6431	24120	103.1759961408
0	6434	24120	103.1759961408
0	6434	24120	103.1759961408
0	6439	24150	103.169996136
0	6442	24150	103.169996136
0	6442	24150	103.169996136
0	6447	24180	103.1639961312
0	6450	24180	103.1639961312
0	6450	24180	103.1639961312
0	6455	24210	103.1579961264
0	6458	24210	103.1579961264
0	6458	24210	103.1579961264
0	6463	24240	103.1519961216
0	6466	24240	103.1519961216
0	6466	24240	103.1519961216
0	6471	24270	103.1459961168
0	6474	24270	103.1459961168
0	6474	24270	103.1459961168
0	6479	24300	103.139996112
0	6482	24300	103.139996112
0	6482	24300	103.139996112
0	6487	24330	103.1339961072
0	6490	24330	103.1339961072
0	6490	24330	103.1339961072
0	6495	24360	103.1279961024
0	6498	24360	103.1279961024
0	6498	24360	103.1279961024
0	6503	24390	103.1219960976
0	6506	24390	103.1219960976
0	6506	24390	103.1219960976
0	6511	24420	103.1159960928
0	6514	24420	103.1159960928
0	6514	24420	103.1159960928
0	6519	24450	103.109996088
0	6522	24450	103.109996088
0	6522	24450	103.109996088
0	6527	24480	103.1039960832
0	6530	24480	103.1039960832
0	6530	24480	103.1039960832
0	6535	24510	103.0979960784
0	6538	24510	103.0979960784
0	6538	24510	103.0979960784
0	6543	24540	103.0919960736
0	6546	24540	103.0919960736
0	6546	24540	103.0919960736
0	6551	24570	103.0859960688
0	6554	24570	103.0859960688
0	6554	24570	103.0859960688
0	6559	24600	103.079996064
0	6562	24600	103.079996064
0	6562	24600	103.079996064
0	6567	24630	103.0739960592
0	6570	24630	103.0739960592
0	6570	24630	103.0739960592
0	6575	24660	103.0679960544
0	6578	24660	103.0679960544
0	6578	24660	103.0679960544
0	6583	24690	103.0619960496
0	6586	24690	103.0619960496
0	6586	24690	103.0619960496
0	6591	24720	103.0559960448
0	6594	24720	103.0559960448
0	6594	24720	103.0559960448
0	6599	24750	103.04999604
0	6602	24750	103.04999604
0	6602	24750	103.04999604
0	6607	24780	103.0439960352
0	6610	24780	103.0439960352
0	6610	24780	103.0439960352
0	6615	24810	103.0379960304
0	6618	24810	103.0379960304
0	6618	24810	103.0379960304
0	6623	24840	103.0319960256
0	6626	24840	103.0319960256
0	6626	24840	103.0319960256
0	6631	24870	103.0259960208
0	6634	24870	103.0259960208
0	6634	24870	103.0259960208
0	6639	24900	103.019996016
0	6642	24900	103.019996016
0	6642	24900	103.019996016
0	6647	24930	103.0139960112
0	6650	24930	103.0139960112
0	6650	24930	103.0139960112
0	6655	24960	103.0079960064
0	6658	24960	103.0079960064
0	6658	24960	103.0079960064
0	6663	24990	103.0019960016
0	6666	24990	103.0019960016
0	6666	24990	103.0019960016
0	6671	25020	102.9959959968
0	6674	25020	102.9959959968
0	6674	25020	102.9959959968
0	6679	25050	102.989995992
0	6682	25050	102.989995992
0	6682	25050	102.989995992
0	6687	25080	102.9839959872
0	6690	25080	102.9839959872
0	6690	25080	102.9839959872
0	6695	25110	102.9779959824
0	6698	25110	102.9779959824
0	6698	25110	102.9779959824
0	6703	25140	102.9719959776
0	6706	25140	102.9719959776
0	6706	25140	102.9719959776
0	6711	25170	102.9659959728
0	6714	25170	102.9659959728
0	6714	25170	102.9659959728
0	6719	25200	102.959995968
0	6722	25200	102.959995968
0	6722	25200	102.959995968
0	6727	25230	102.9539959632
0	6730	25230	102.9539959632
0	6730	25230	102.9539959632
0	6735	25260	102.9479959584
0	6738	25260	102.9479959584
0	6738	25260	102.9479959584
0	6743	25290	102.9419959536
0	6746	25290	102.9419959536
0	6746	25290	102.9419959536
0	6751	25320	102.9359959488
0	6754	25320	102.9359959488
0	6754	25320	102.9359959488
0	6759	25350	102.929995944
0	6762	25350	102.929995944
0	6762	25350	102.929995944
0	6767	25380	102.9239959392
0	6770	25380	102.9239959392
0	6770	25380	102.9239959392
0	6775	25410	102.9179959344
0	6778	25410	102.9179959344
0	6778	25410	102.9179959344
0	6783	25440	102.9119959296
0	6786	25440	102.9119959296
0	6786	25440	102.9119959296
0	6791	25470	102.9059959248
0	6794	25470	102.9059959248
0	6794	25470	102.9059959248
0	6799	25500	102.89999592
0	6802	25500	102.89999592
0	6802	25500	102.89999592
0	6807	25530	102.8939959152
0	6810	25530	102.8939959152
0	6810	25530	102.8939959152
0	6815	25560	102.8879959104
0	6818	25560	102.8879959104
0	6818	25560	102.8879959104
0	6823	25590	102.8819959056
0	6826	25590	102.8819959056
0	6826	25590	102.8819959056
0	6831	25620	102.8759959008
0	6834	25620	102.8759959008
0	6834	25620	102.8759959008
0	6839	25650	102.869995896
0	6842	25650	102.869995896
0	6842	25650	102.869995896
0	6847	25680	102.8639958912
0	6850	25680	102.8639958912
0	6850	25680	102.8639958912
0	6855	25710	102.8579958864
0	6858	25710	102.8579958864
0	6858	25710	102.8579958864
0	6863	25740	102.8519958816
0	6866	25740	102.8519958816
0	6866	25740	102.8519958816
0	6871	25770	102.8459958768
0	6874	25770	102.8459958768
0	6874	25770	102.8459958768
0	6879	25800	102.839995872
0	6882	25800	102.839995872
0	6882	25800	102.839995872
0	6887	25830	102.8339958672
0	6890	25830	102.8339958672
0	6890	25830	102.8339958672
0	6895	25860	102.8279958624
0	6898	25860	102.8279958624
0	6898	25860	102.8279958624
0	6903	25890	102.8219958576
0	6906	25890	102.8219958576
0	6906	25890	102.8219958576
0	6911	25920	102.8159958528
1	1	0	0
1	1	0	0.0002
1	7	30	0.0002
1	7	30	0.0335
1	10	30	0.0335
1	10	30	0.0002
1	15	60	0.0002
1	15	60	0.0335
1	18	60	0.0335
1	18	60	0.0002
1	23	90	0.0002
1	23	90	0.0335
1	26	90	0.0335
1	26	90	0.0002
1	31	120	0.0002
1	31	120	0.0335
1	34	120	0.0335
1	34	120	0.0002
1	39	150	0.0002
1	39	150	0.0335
1	42	150	0.0335
1	42	150	0.0002
1	47	180	0.0002
1	47	180	0.0335
1	50	180	0.0335
1	50	180	0.0002
1	55	210	0.0002
1	55	210	0.0335
1	58	210	0.0335
1	58	210	0.0002
1	63	240	0.0002
1	63	240	0.0335
1	66	240	0.0335
1	66	240	0.0002
1	71	270	0.0002
1	71	270	0.0335
1	74	270	0.0335
1	74	270	0.0002
1	79	300	0.0002
1	79	300	0.0335
1	82	300	0.0335
1	82	300	0.0002
1	87	330	0.0002
1	87	330	0.0335
1	90	330	0.0335
1	90	330	0.0002
1	95	360	0.0002
1	95	360	0.0335
1	98	360	0.0335
1	98	360	0.0002
1	103	390	0.0002
1	103	390	0.0335
1	106	390	0.0335
1	106	390	0.0002
1	111	420	0.0002
1	111	420	0.0335
1	114	420	0.0335
1	114	420	0.0002
1	119	450	0.0002
1	119	450	0.0335
1	122	450	0.0335
1	122	450	0.0002
1	127	480	0.0002
1	127	480	0.0335
1	130	480	0.0335
1	130	480	0.0002
1	135	510	0.0002
1	135	510	0.0335
1	138	510	0.0335
1	138	510	0.0002
1	143	540	0.0002
1	143	540	0.0335
1	146	540	0.0335
1	146	540	0.0002
1	151	570	0.0002
1	151	570	0.0335
1	154	570	0.0335
1	154	570	0.0002
1	159	600	0.0002
1	159	600	0.0335
1	162	600	0.0335
1	162	600	0.0002
1	167	630	0.0002
1	167	630	0.0335
1	170	630	0.0335
1	170	630	0.0002
1	175	660	0.0002
1	175	660	0.0335
1	178	660	0.0335
1	178	660	0.0002
1	183	690	0.0002
1	183	690	0.0335
1	186	690	0.0335
1	186	690	0.0002
1	191	720	0.0002
1	191	720	0.0335
1	194	720	0.0335
1	194	720	0.0002
1	199	750	0.0002
1	199	750	0.0335
1	202	750	0.0335
1	202	750	0.0002
1	207	780	0.0002
1	207	780	0.0335
1	210	780	0.0335
1	210	780	0.0002
1	215	810	0.0002
1	215	810	0.0335
1	218	810	0.0335
1	218	810	0.0002
1	223	840	0.0002
1	223	840	0.0335
1	226	840	0.0335
1	226	840	0.0002
1	231	870	0.0002
1	231	870	0.0335
1	234	870	0.0335
1	234	870	0.0002
1	239	900	0.0002
1	239	900	0.0335
1	242	900	0.0335
1	242	900	0.0002
1	247	930	0.0002
1	247	930	0.0335
1	250	930	0.0335
1	250	930	0.0002
1	255	960	0.0002
1	255	960	0.0335
1	258	960	0.0335
1	258	960	0.0002
1	263	990	0.0002
1	263	990	0.0335
1	266	990	0.0335
1	266	990	0.0002
1	271	1020	0.0002
1	271	1020	0.0335
1	274	1020	0.0335
1	274	1020	0.0002
1	279	1050	0.0002
1	279	1050	0.0335
1	282	1050	0.0335
1	282	1050	0.0002
1	287	1080	0.0002
1	287	1080	0.0335
1	290	1080	0.0335
1	290	1080	0.0002
1	295	1110	0.0002
1	295	1110	0.0335
1	298	1110	0.0335
1	298	1110	0.0002
1	303	1140	0.0002
1	303	1140	0.0335
1	306	1140	0.0335
1	306	1140	0.0002
1	311	1170	0.0002
1	311	1170	0.0335
1	314	1170	0.0335
1	314	1170	0.0002
1	319	1200	0.0002
1	319	1200	0.0335
1	322	1200	0.0335
1	322	1200	0.0002
1	327	1230	0.0002
1	327	1230	0.0335
1	330	1230	0.0335
1	330	1230	0.0002
1	335	1260	0.0002
1	335	1260	0.0335
1	338	1260	0.0335
1	338	1260	0.0002
1	343	1290	0.0002
1	343	1290	0.0335
1	346	1290	0.0335
1	346	1290	0.0002
1	351	1320	0.0002
1	351	1320	0.0335
1	354	1320	0.0335
1	354	1320	0.0002
1	359	1350	0.0002
1	359	1350	0.0335
1	362	1350	0.0335
1	362	1350	0.0002
1	367	1380	0.0002
1	367	1380	0.0335
1	370	1380	0.0335
1	370	1380	0.0002
1	375	1410	0.0002
1	375	1410	0.0335
1	378	1410	0.0335
1	378	1410	0.0002
1	383	1440	0.0002
1	383	1440	0.0335
1	386	1440	0.0335
1	386	1440	0.0002
1	391	1470	0.0002
1	391	1470	0.0335
1	394	1470	0.0335
1	394	1470	0.0002
1	399	1500	0.0002
1	399	1500	0.0335
1	402	1500	0.0335
1	402	1500	0.0002
1	407	1530	0.0002
1	407	1530	0.0335
1	410	1530	0.0335
1	410	1530	0.0002
1	415	1560	0.0002
1	415	1560	0.0335
1	418	1560	0.0335
1	418	1560	0.0002
1	423	1590	0.0002
1	423	1590	0.0335
1	426	1590	0.0335
1	426	1590	0.0002
1	431	1620	0.0002
1	431	1620	0.0335
1	434	1620	0.0335
1	434	1620	0.0002
1	439	1650	0.0002
1	439	1650	0.0335
1	442	1650	0.0335
1	442	1650	0.0002
1	447	1680	0.0002
1	447	1680	0.0335
1	450	1680	0.0335
1	450	1680	0.0002
1	455	1710	0.0002
1	455	1710	0.0335
1	458	1710	0.0335
1	458	1710	0.0002
1	463	1740	0.0002
1	463	1740	0.0335
1	466	1740	0.0335
1	466	1740	0.0002
1	471	1770	0.0002
1	471	1770	0.0335
1	474	1770	0.0335
1	474	1770	0.0002
1	479	1800	0.0002
1	479	1800	0.0335
1	482	1800	0.0335
1	482	1800	0.0002
1	487	1830	0.0002
1	487	1830	0.0335
1	490	1830	0.0335
1	490	1830	0.0002
1	495	1860	0.0002
1	495	1860	0.0335
1	498	1860	0.0335
1	498	1860	0.0002
1	503	1890	0.0002
1	503	1890	0.0335
1	506	1890	0.0335
1	506	1890	0.0002
1	511	1920	0.0002
1	511	1920	0.0335
1	514	1920	0.0335
1	514	1920	0.0002
1	519	1950	0.0002
1	519	1950	0.0335
1	522	1950	0.0335
1	522	1950	0.0002
1	527	1980	0.0002
1	527	1980	0.0335
1	530	1980	0.0335
1	530	1980	0.0002
1	535	2010	0.0002
1	535	2010	0.0335
1	538	2010	0.0335
1	538	2010	0.0002
1	543	2040	0.0002
1	543	2040	0.0335
1	546	2040	0.0335
1	546	2040	0.0002
1	551	2070	0.0002
1	551	2070	0.0335
1	554	2070	0.0335
1	554	2070	0.0002
1	559	2100	0.0002
1	559	2100	0.0335
1	562	2100	0.0335
1	562	2100	0.0002
1	567	2130	0.0002
1	567	2130	0.0335
1	570	2130	0.0335
1	570	2130	0.0002
1	575	2160	0.0002
1	575	2160	0.0335
1	578	2160	0.0335
1	578	2160	0.0002
1	583	2190	0.0002
1	583	2190	0.0335
1	586	2190	0.0335
1	586	2190	0.0002
1	591	2220	0.0002
1	591	2220	0.0335
1	594	2220	0.0335
1	594	2220	0.0002
1	599	2250	0.0002
1	599	2250	0.0335
1	602	2250	0.0335
1	602	2250	0.0002
1	607	2280	0.0002
1	607	2280	0.0335
1	610	2280	0.0335
1	610	2280	0.0002
1	615	2310	0.0002
1	615	2310	0.0335
1	618	2310	0.0335
1	618	2310	0.0002
1	623	2340	0.0002
1	623	2340	0.0335
1	626	2340	0.0335
1	626	2340	0.0002
1	631	2370	0.0002
1	631	2370	0.0335
1	634	2370	0.0335
1	634	2370	0.0002
1	639	2400	0.0002
1	639	2400	0.0335
1	642	2400	0.0335
1	642	2400	0.0002
1	647	2430	0.0002
1	647	2430	0.0335
1	650	2430	0.0335
1	650	2430	0.0002
1	655	2460	0.0002
1	655	2460	0.0335
1	658	2460	0.0335
1	658	2460	0.0002
1	663	2490	0.0002
1	663	2490	0.0335
1	666	2490	0.0335
1	666	2490	0.0002
1	671	2520	0.0002
1	671	2520	0.0335
1	674	2520	0.0335
1	674	2520	0.0002
1	679	2550	0.0002
1	679	2550	0.0335
1	682	2550	0.0335
1	682	2550	0.0002
1	687	2580	0.0002
1	687	2580	0.0335
1	690	2580	0.0335
1	690	2580	0.0002
1	695	2610	0.0002
1	695	2610	0.0335
1	698	2610	0.0335
1	698	2610	0.0002
1	703	2640	0.0002
1	703	2640	0.0335
1	706	2640	0.0335
1	706	2640	0.0002
1	711	2670	0.0002
1	711	2670	0.0335
1	714	2670	0.0335
1	714	2670	0.0002
1	719	2700	0.0002
1	719	2700	0.0335
1	722	2700	0.0335
1	722	2700	0.0002
1	727	2730	0.0002
1	727	2730	0.0335
1	730	2730	0.0335
1	730	2730	0.0002
1	735	2760	0.0002
1	735	2760	0.0335
1	738	2760	0.0335
1	738	2760	0.0002
1	743	2790	0.0002
1	743	2790	0.0335
1	746	2790	0.0335
1	746	2790	0.0002
1	751	2820	0.0002
1	751	2820	0.0335
1	754	2820	0.0335
1	754	2820	0.0002
1	759	2850	0.0002
1	759	2850	0.0335
1	762	2850	0.0335
1	762	2850	0.0002
1	767	2880	0.0002
1	767	2880	0.0335
1	770	2880	0.0335
1	770	2880	0.0002
1	775	2910	0.0002
1	775	2910	0.0335
1	778	2910	0.0335
1	778	2910	0.0002
1	783	2940	0.0002
1	783	2940	0.0335
1	786	2940	0.0335
1	786	2940	0.0002
1	791	2970	0.0002
1	791	2970	0.0335
1	794	2970	0.0335
1	794	2970	0.0002
1	799	3000	0.0002
1	799	3000	0.0335
1	802	3000	0.0335
1	802	3000	0.0002
1	807	3030	0.0002
1	807	3030	0.0335
1	810	3030	0.0335
1	810	3030	0.0002
1	815	3060	0.0002
1	815	3060	0.0335
1	818	3060	0.0335
1	818	3060	0.0002
1	823	3090	0.0002
1	823	3090	0.0335
1	826	3090	0.0335
1	826	3090	0.0002
1	831	3120	0.0002
1	831	3120	0.0335
1	834	3120	0.0335
1	834	3120	0.0002
1	839	3150	0.0002
1	839	3150	0.0335
1	842	3150	0.0335
1	842	3150	0.0002
1	847	3180	0.0002
1	847	3180	0.0335
1	850	3180	0.0335
1	850	3180	0.0002
1	855	3210	0.0002
1	855	3210	0.0335
1	858	3210	0.0335
1	858	3210	0.0002
1	863	3240	0.0002
1	863	3240	0.0335
1	866	3240	0.0335
1	866	3240	0.0002
1	871	3270	0.0002
1	871	3270	0.0335
1	874	3270	0.0335
1	874	3270	0.0002
1	879	3300	0.0002
1	879	3300	0.0335
1	882	3300	0.0335
1	882	3300	0.0002
1	887	3330	0.0002
1	887	3330	0.0335
1	890	3330	0.0335
1	890	3330	0.0002
1	895	3360	0.0002
1	895	3360	0.0335
1	898	3360	0.0335
1	898	3360	0.0002
1	903	3390	0.0002
1	903	3390	0.0335
1	906	3390	0.0335
1	906	3390	0.0002
1	911	3420	0.0002
1	911	3420	0.0335
1	914	3420	0.0335
1	914	3420	0.0002
1	919	3450	0.0002
1	919	3450	0.0335
1	922	3450	0.0335
1	922	3450	0.0002
1	927	3480	0.0002
1	927	3480	0.0335
1	930	3480	0.0335
1	930	3480	0.0002
1	935	3510	0.0002
1	935	3510	0.0335
1	938	3510	0.0335
1	938	3510	0.0002
1	943	3540	0.0002
1	943	3540	0.0335
1	946	3540	0.0335
1	946	3540	0.0002
1	951	3570	0.0002
1	951	3570	0.0335
1	954	3570	0.0335
1	954	3570	0.0002
1	959	3600	0.0002
1	959	3600	0.0335
1	962	3600	0.0335
1	962	3600	0.0002
1	967	3630	0.0002
1	967	3630	0.0335
1	970	3630	0.0335
1	970	3630	0.0002
1	975	3660	0.0002
1	975	3660	0.0335
1	978	3660	0.0335
1	978	3660	0.0002
1	983	3690	0.0002
1	983	3690	0.0335
1	986	3690	0.0335
1	986	3690	0.0002
1	991	3720	0.0002
1	991	3720	0.0335
1	994	3720	0.0335
1	994	3720	0.0002
1	999	3750	0.0002
1	999	3750	0.0335
[...]
4	6521	24450	0.0002
4	6524	24478.5	0.0002
4	6524	24478.5	0.0243
4	6529	24480	0.0243
4	6529	24480	0.0002
4	6532	24508.5	0.0002
4	6532	24508.5	0.0243
4	6537	24510	0.0243
4	6537	24510	0.0002
4	6540	24538.5	0.0002
4	6540	24538.5	0.0243
4	6545	24540	0.0243
4	6545	24540	0.0002
4	6548	24568.5	0.0002
4	6548	24568.5	0.0243
4	6553	24570	0.0243
4	6553	24570	0.0002
4	6556	24598.5	0.0002
4	6556	24598.5	0.0243
4	6561	24600	0.0243
4	6561	24600	0.0002
4	6564	24628.5	0.0002
4	6564	24628.5	0.0243
4	6569	24630	0.0243
4	6569	24630	0.0002
4	6572	24658.5	0.0002
4	6572	24658.5	0.0243
4	6577	24660	0.0243
4	6577	24660	0.0002
4	6580	24688.5	0.0002
4	6580	24688.5	0.0243
4	6585	24690	0.0243
4	6585	24690	0.0002
4	6588	24718.5	0.0002
4	6588	24718.5	0.0243
4	6593	24720	0.0243
4	6593	24720	0.0002
4	6596	24748.5	0.0002
4	6596	24748.5	0.0243
4	6601	24750	0.0243
4	6601	24750	0.0002
4	6604	24778.5	0.0002
4	6604	24778.5	0.0243
4	6609	24780	0.0243
4	6609	24780	0.0002
4	6612	24808.5	0.0002
4	6612	24808.5	0.0243
4	6617	24810	0.0243
4	6617	24810	0.0002
4	6620	24838.5	0.0002
4	6620	24838.5	0.0243
4	6625	24840	0.0243
4	6625	24840	0.0002
4	6628	24868.5	0.0002
4	6628	24868.5	0.0243
4	6633	24870	0.0243
4	6633	24870	0.0002
4	6636	24898.5	0.0002
4	6636	24898.5	0.0243
4	6641	24900	0.0243
4	6641	24900	0.0002
4	6644	24928.5	0.0002
4	6644	24928.5	0.0243
4	6649	24930	0.0243
4	6649	24930	0.0002
4	6652	24958.5	0.0002
4	6652	24958.5	0.0243
4	6657	24960	0.0243
4	6657	24960	0.0002
4	6660	24988.5	0.0002
4	6660	24988.5	0.0243
4	6665	24990	0.0243
4	6665	24990	0.0002
4	6668	25018.5	0.0002
4	6668	25018.5	0.0243
4	6673	25020	0.0243
4	6673	25020	0.0002
4	6676	25048.5	0.0002
4	6676	25048.5	0.0243
4	6681	25050	0.0243
4	6681	25050	0.0002
4	6684	25078.5	0.0002
4	6684	25078.5	0.0243
4	6689	25080	0.0243
4	6689	25080	0.0002
4	6692	25108.5	0.0002
4	6692	25108.5	0.0243
4	6697	25110	0.0243
4	6697	25110	0.0002
4	6700	25138.5	0.0002
4	6700	25138.5	0.0243
4	6705	25140	0.0243
4	6705	25140	0.0002
4	6708	25168.5	0.0002
4	6708	25168.5	0.0243
4	6713	25170	0.0243
4	6713	25170	0.0002
4	6716	25198.5	0.0002
4	6716	25198.5	0.0243
4	6721	25200	0.0243
4	6721	25200	0.0002
4	6724	25228.5	0.0002
4	6724	25228.5	0.0243
4	6729	25230	0.0243
4	6729	25230	0.0002
4	6732	25258.5	0.0002
4	6732	25258.5	0.0243
4	6737	25260	0.0243
4	6737	25260	0.0002
4	6740	25288.5	0.0002
4	6740	25288.5	0.0243
4	6745	25290	0.0243
4	6745	25290	0.0002
4	6748	25318.5	0.0002
4	6748	25318.5	0.0243
4	6753	25320	0.0243
4	6753	25320	0.0002
4	6756	25348.5	0.0002
4	6756	25348.5	0.0243
4	6761	25350	0.0243
4	6761	25350	0.0002
4	6764	25378.5	0.0002
4	6764	25378.5	0.0243
4	6769	25380	0.0243
4	6769	25380	0.0002
4	6772	25408.5	0.0002
4	6772	25408.5	0.0243
4	6777	25410	0.0243
4	6777	25410	0.0002
4	6780	25438.5	0.0002
4	6780	25438.5	0.0243
4	6785	25440	0.0243
4	6785	25440	0.0002
4	6788	25468.5	0.0002
4	6788	25468.5	0.0243
4	6793	25470	0.0243
4	6793	25470	0.0002
4	6796	25498.5	0.0002
4	6796	25498.5	0.0243
4	6801	25500	0.0243
4	6801	25500	0.0002
4	6804	25528.5	0.0002
4	6804	25528.5	0.0243
4	6809	25530	0.0243
4	6809	25530	0.0002
4	6812	25558.5	0.0002
4	6812	25558.5	0.0243
4	6817	25560	0.0243
4	6817	25560	0.0002
4	6820	25588.5	0.0002
4	6820	25588.5	0.0243
4	6825	25590	0.0243
4	6825	25590	0.0002
4	6828	25618.5	0.0002
4	6828	25618.5	0.0243
4	6833	25620	0.0243
4	6833	25620	0.0002
4	6836	25648.5	0.0002
4	6836	25648.5	0.0243
4	6841	25650	0.0243
4	6841	25650	0.0002
4	6844	25678.5	0.0002
4	6844	25678.5	0.0243
4	6849	25680	0.0243
4	6849	25680	0.0002
4	6852	25708.5	0.0002
4	6852	25708.5	0.0243
4	6857	25710	0.0243
4	6857	25710	0.0002
4	6860	25738.5	0.0002
4	6860	25738.5	0.0243
4	6865	25740	0.0243
4	6865	25740	0.0002
4	6868	25768.5	0.0002
4	6868	25768.5	0.0243
4	6873	25770	0.0243
4	6873	25770	0.0002
4	6876	25798.5	0.0002
4	6876	25798.5	0.0243
4	6881	25800	0.0243
4	6881	25800	0.0002
4	6884	25828.5	0.0002
4	6884	25828.5	0.0243
4	6889	25830	0.0243
4	6889	25830	0.0002
4	6892	25858.5	0.0002
4	6892	25858.5	0.0243
4	6897	25860	0.0243
4	6897	25860	0.0002
4	6900	25888.5	0.0002
4	6900	25888.5	0.0243
4	6905	25890	0.0243
4	6905	25890	0.0002
4	6908	25918.5	0.0002
4	6908	25918.5	0.0243
5	9	30	44187
5	17	60	43651
5	25	90	43794
5	33	120	43656
5	41	150	43922
5	49	180	43847
5	57	210	43788
5	65	240	44075
5	73	270	43815
5	81	300	44302
5	89	330	44071
5	97	360	44303
5	105	390	44103
5	113	420	43817
5	121	450	44335
5	129	480	43855
5	137	510	43986
5	145	540	43973
5	153	570	43902
5	161	600	44243
5	169	630	43992
5	177	660	44162
5	185	690	44205
5	193	720	43950
5	201	750	44218
5	209	780	44447
5	217	810	44397
5	225	840	43654
5	233	870	44269
5	241	900	44514
5	249	930	44247
5	257	960	44222
5	265	990	44407
5	273	1020	44622
5	281	1050	44393
5	289	1080	44737
5	297	1110	44294
5	305	1140	44383
5	313	1170	44297
5	321	1200	44394
5	329	1230	44777
5	337	1260	44449
5	345	1290	44499
5	353	1320	44343
5	361	1350	44310
5	369	1380	44022
5	377	1410	44388
5	385	1440	44325
5	393	1470	44923
5	401	1500	44179
5	409	1530	44712
5	417	1560	44582
5	425	1590	44533
5	433	1620	44779
5	441	1650	44653
5	449	1680	44534
5	457	1710	44191
5	465	1740	44539
5	473	1770	44755
5	481	1800	44554
5	489	1830	44871
5	497	1860	44770
5	505	1890	44465
5	513	1920	44477
5	521	1950	44521
5	529	1980	44851
5	537	2010	45087
5	545	2040	44809
5	553	2070	44702
5	561	2100	44615
5	569	2130	44557
5	577	2160	44993
5	585	2190	44750
5	593	2220	44627
5	601	2250	44352
5	609	2280	44371
5	617	2310	44689
5	625	2340	44286
5	633	2370	44756
5	641	2400	45016
5	649	2430	44936
5	657	2460	44806
5	665	2490	44263
5	673	2520	44860
5	681	2550	44765
5	689	2580	44698
5	697	2610	44647
5	705	2640	44781
5	713	2670	44745
5	721	2700	44870
5	729	2730	44900
5	737	2760	44724
5	745	2790	44681
5	753	2820	44867
5	761	2850	45058
5	769	2880	45347
5	777	2910	45098
5	785	2940	45247
5	793	2970	44941
5	801	3000	44877
5	809	3030	45150
5	817	3060	44813
5	825	3090	44789
5	833	3120	44931
5	841	3150	44764
5	849	3180	45126
5	857	3210	45314
5	865	3240	45260
5	873	3270	44922
5	881	3300	44681
5	889	3330	45401
5	897	3360	44905
5	905	3390	44861
5	913	3420	45252
5	921	3450	45141
5	929	3480	45325
5	937	3510	45458
5	945	3540	44948
5	953	3570	45125
5	961	3600	45162
5	969	3630	45166
5	977	3660	45162
5	985	3690	45084
5	993	3720	44961
5	1001	3750	45573
5	1009	3780	45343
5	1017	3810	45274
5	1025	3840	45345
5	1033	3870	45356
5	1041	3900	45101
5	1049	3930	45512
5	1057	3960	44801
5	1065	3990	45460
5	1073	4020	45549
5	1081	4050	45176
5	1089	4080	45008
5	1097	4110	44996
5	1105	4140	45538
5	1113	4170	45841
5	1121	4200	45644
5	1129	4230	45579
5	1137	4260	45871
5	1145	4290	45555
5	1153	4320	45515
5	1161	4350	45612
5	1169	4380	45595
5	1177	4410	45236
5	1185	4440	45435
5	1193	4470	45378
5	1201	4500	45539
5	1209	4530	45373
5	1217	4560	45538
5	1225	4590	46006
5	1233	4620	45527
5	1241	4650	45530
5	1249	4680	45410
5	1257	4710	45641
5	1265	4740	45947
5	1273	4770	45011
5	1281	4800	45551
5	1289	4830	45870
5	1297	4860	45955
5	1305	4890	45334
5	1313	4920	45656
5	1321	4950	45692
5	1329	4980	45882
5	1337	5010	45713
5	1345	5040	45549
5	1353	5070	45945
5	1361	5100	45876
5	1369	5130	45834
5	1377	5160	45547
5	1385	5190	46043
5	1393	5220	45910
5	1401	5250	45664
5	1409	5280	45869
5	1417	5310	45784
5	1425	5340	45879
5	1433	5370	45258
5	1441	5400	45752
5	1449	5430	45671
5	1457	5460	46292
5	1465	5490	45977
5	1473	5520	45951
5	1481	5550	45827
5	1489	5580	45918
5	1497	5610	45938
5	1505	5640	45888
5	1513	5670	46015
5	1521	5700	45642
5	1529	5730	45458
5	1537	5760	45498
5	1545	5790	46124
5	1553	5820	46276
5	1561	5850	46260
5	1569	5880	45628
5	1577	5910	46204
5	1585	5940	46059
5	1593	5970	45962
5	1601	6000	45713
5	1609	6030	46065
5	1617	6060	45843
5	1625	6090	45973
5	1633	6120	46082
5	1641	6150	45858
5	1649	6180	46034
5	1657	6210	46201
5	1665	6240	46198
5	1673	6270	46090
5	1681	6300	46269
5	1689	6330	46364
5	1697	6360	46345
5	1705	6390	45798
5	1713	6420	46083
5	1721	6450	46257
5	1729	6480	45862
5	1737	6510	45948
5	1745	6540	46111
5	1753	6570	46330
5	1761	6600	46121
5	1769	6630	46098
5	1777	6660	46559
5	1785	6690	45896
5	1793	6720	46047
5	1801	6750	46244
5	1809	6780	46157
5	1817	6810	45957
5	1825	6840	46361
5	1833	6870	46102
5	1841	6900	46160
5	1849	6930	46650
5	1857	6960	46287
5	1865	6990	46308
5	1873	7020	46034
5	1881	7050	46608
5	1889	7080	46432
5	1897	7110	46317
5	1905	7140	46226
5	1913	7170	46269
5	1921	7200	46355
5	1929	7230	46369
5	1937	7260	46716
5	1945	7290	46683
5	1953	7320	46453
5	1961	7350	46280
5	1969	7380	46780
5	1977	7410	46836
5	1985	7440	46661
5	1993	7470	46826
5	2001	7500	46196
5	2009	7530	46835
5	2017	7560	46457
5	2025	7590	46843
5	2033	7620	46815
5	2041	7650	46558
5	2049	7680	46485
5	2057	7710	46686
5	2065	7740	46785
5	2073	7770	46706
5	2081	7800	46597
5	2089	7830	46830
5	2097	7860	46724
5	2105	7890	46760
5	2113	7920	46406
5	2121	7950	46656
5	2129	7980	46723
5	2137	8010	46935
5	2145	8040	46693
5	2153	8070	47088
5	2161	8100	46744
5	2169	8130	46787
5	2177	8160	46912
5	2185	8190	46364
5	2193	8220	46908
5	2201	8250	46929
5	2209	8280	46777
5	2217	8310	46889
5	2225	8340	47035
5	2233	8370	46871
5	2241	8400	47038
5	2249	8430	47434
5	2257	8460	46991
5	2265	8490	46691
5	2273	8520	46989
5	2281	8550	46867
5	2289	8580	47149
5	2297	8610	46530
5	2305	8640	46855
5	2313	8670	47198
5	2321	8700	47062
5	2329	8730	47368
5	2337	8760	46917
5	2345	8790	47076
5	2353	8820	46845
5	2361	8850	47230
5	2369	8880	46998
5	2377	8910	46908
5	2385	8940	47379
5	2393	8970	47132
5	2401	9000	47444
5	2409	9030	47222
5	2417	9060	47154
5	2425	9090	47222
5	2433	9120	47153
5	2441	9150	47364
5	2449	9180	47570
5	2457	9210	47352
5	2465	9240	47114
5	2473	9270	47618
5	2481	9300	47409
5	2489	9330	47317
5	2497	9360	47244
5	2505	9390	47296
5	2513	9420	47471
5	2521	9450	47633
5	2529	9480	47440
5	2537	9510	47402
5	2545	9540	47517
5	2553	9570	47443
5	2561	9600	47396
5	2569	9630	47745
5	2577	9660	47527
5	2585	9690	47490
5	2593	9720	47471
5	2601	9750	47219
5	2609	9780	47938
5	2617	9810	47233
5	2625	9840	47163
5	2633	9870	47383
5	2641	9900	46951
5	2649	9930	47674
5	2657	9960	47758
5	2665	9990	47399
5	2673	10020	47190
5	2681	10050	47615
5	2689	10080	47772
5	2697	10110	47164
5	2705	10140	48029
5	2713	10170	47702
5	2721	10200	47497
5	2729	10230	47841
5	2737	10260	47702
5	2745	10290	47556
5	2753	10320	47729
5	2761	10350	48016
5	2769	10380	47680
5	2777	10410	47772
5	2785	10440	47674
5	2793	10470	47529
5	2801	10500	47706
5	2809	10530	47901
5	2817	10560	47758
5	2825	10590	47804
5	2833	10620	47914
5	2841	10650	47781
5	2849	10680	47473
5	2857	10710	47907
5	2865	10740	47721
5	2873	10770	47976
5	2881	10800	47626
5	2889	10830	47770
5	2897	10860	47989
5	2905	10890	47750
5	2913	10920	47924
5	2921	10950	48056
5	2929	10980	47936
5	2937	11010	47874
5	2945	11040	47940
5	2953	11070	47736
5	2961	11100	48008
5	2969	11130	47940
5	2977	11160	48282
5	2985	11190	48014
5	2993	11220	48205
5	3001	11250	47990
5	3009	11280	47914
5	3017	11310	47987
5	3025	11340	48020
5	3033	11370	47777
5	3041	11400	48225
5	3049	11430	48186
5	3057	11460	48007
5	3065	11490	48274
5	3073	11520	48217
5	3081	11550	48558
5	3089	11580	47966
5	3097	11610	48052
5	3105	11640	48531
5	3113	11670	48245
5	3121	11700	48580
5	3129	11730	47991
5	3137	11760	47801
5	3145	11790	48239
5	3153	11820	48177
5	3161	11850	48207
5	3169	11880	48408
5	3177	11910	48293
5	3185	11940	48389
5	3193	11970	48293
5	3201	12000	48389
5	3209	12030	48245
5	3217	12060	48399
5	3225	12090	48472
5	3233	12120	48582
5	3241	12150	48251
5	3249	12180	48266
5	3257	12210	48602
5	3265	12240	48509
5	3273	12270	48355
5	3281	12300	48424
5	3289	12330	48629
5	3297	12360	48180
5	3305	12390	48657
5	3313	12420	48687
5	3321	12450	48334
5	3329	12480	48768
5	3337	12510	48651
5	3345	12540	48677
5	3353	12570	48720
5	3361	12600	48663
5	3369	12630	48862
5	3377	12660	48724
5	3385	12690	48464
5	3393	12720	48517
5	3401	12750	48645
5	3409	12780	49143
5	3417	12810	48579
5	3425	12840	48644
5	3433	12870	48621
5	3441	12900	48377
5	3449	12930	48826
5	3457	12960	49085
5	3465	12990	48421
5	3473	13020	48559
5	3481	13050	48700
5	3489	13080	49399
5	3497	13110	48938
5	3505	13140	48797
5	3513	13170	48665
5	3521	13200	48848
5	3529	13230	49113
5	3537	13260	48898
5	3545	13290	49193
5	3553	13320	49181
5	3561	13350	49201
5	3569	13380	48927
5	3577	13410	48820
5	3585	13440	48828
5	3593	13470	49121
5	3601	13500	49149
5	3609	13530	49381
5	3617	13560	48939
5	3625	13590	48929
5	3633	13620	49163
5	3641	13650	49420
5	3649	13680	49129
5	3657	13710	48883
5	3665	13740	48783
5	3673	13770	49193
5	3681	13800	48895
5	3689	13830	49127
5	3697	13860	49484
5	3705	13890	49152
5	3713	13920	49034
5	3721	13950	48757
5	3729	13980	49342
5	3737	14010	49564
5	3745	14040	49273
5	3753	14070	49283
5	3761	14100	49345
5	3769	14130	48882
5	3777	14160	49377
5	3785	14190	49121
5	3793	14220	49297
5	3801	14250	49536
5	3809	14280	49642
5	3817	14310	49565
5	3825	14340	49675
5	3833	14370	49415
5	3841	14400	49477
5	3849	14430	49446
5	3857	14460	49821
5	3865	14490	49669
5	3873	14520	49499
5	3881	14550	49575
5	3889	14580	49268
5	3897	14610	49598
5	3905	14640	49996
5	3913	14670	49165
5	3921	14700	49626
5	3929	14730	49698
5	3937	14760	49635
5	3945	14790	49577
5	3953	14820	49607
5	3961	14850	49630
5	3969	14880	49924
5	3977	14910	49753
5	3985	14940	49632
5	3993	14970	49999
5	4001	15000	49693
5	4009	15030	49713
5	4017	15060	49856
5	4025	15090	49664
5	4033	15120	50122
5	4041	15150	49761
5	4049	15180	49907
5	4057	15210	49526
5	4065	15240	50058
5	4073	15270	49936
5	4081	15300	50374
5	4089	15330	50035
5	4097	15360	50130
5	4105	15390	49954
5	4113	15420	49805
5	4121	15450	50038
5	4129	15480	49925
5	4137	15510	50176
5	4145	15540	50096
5	4153	15570	49859
5	4161	15600	49940
5	4169	15630	50043
5	4177	15660	50049
5	4185	15690	49748
5	4193	15720	50263
5	4201	15750	49864
5	4209	15780	49763
5	4217	15810	50423
5	4225	15840	50121
5	4233	15870	49843
5	4241	15900	49956
5	4249	15930	50541
5	4257	15960	50640
5	4265	15990	50462
5	4273	16020	50244
5	4281	16050	50247
5	4289	16080	50468
5	4297	16110	50418
5	4305	16140	50419
5	4313	16170	50147
5	4321	16200	50443
5	4329	16230	50435
5	4337	16260	50612
5	4345	16290	50518
5	4353	16320	50574
5	4361	16350	50594
5	4369	16380	50103
5	4377	16410	50440
5	4385	16440	50377
5	4393	16470	50419
5	4401	16500	50623
5	4409	16530	50488
5	4417	16560	50640
5	4425	16590	50551
5	4433	16620	50376
5	4441	16650	51216
5	4449	16680	50750
5	4457	16710	50652
5	4465	16740	50620
5	4473	16770	50609
5	4481	16800	50395
5	4489	16830	50584
5	4497	16860	50693
5	4505	16890	50592
5	4513	16920	50807
5	4521	16950	50171
5	4529	16980	50544
5	4537	17010	50658
5	4545	17040	50818
5	4553	17070	50464
5	4561	17100	50501
5	4569	17130	50342
5	4577	17160	50888
5	4585	17190	50885
5	4593	17220	51107
5	4601	17250	51012
5	4609	17280	50915
5	4617	17310	50944
5	4625	17340	51254
5	4633	17370	50678
5	4641	17400	51062
5	4649	17430	50706
5	4657	17460	51284
5	4665	17490	50680
5	4673	17520	51175
5	4681	17550	51021
5	4689	17580	50548
5	4697	17610	50935
5	4705	17640	51453
5	4713	17670	51010
5	4721	17700	51259
5	4729	17730	50927
5	4737	17760	51285
5	4745	17790	51005
5	4753	17820	50664
5	4761	17850	51234
5	4769	17880	50957
5	4777	17910	51471
5	4785	17940	50984
5	4793	17970	51527
5	4801	18000	51446
5	4809	18030	50961
5	4817	18060	51253
5	4825	18090	51107
5	4833	18120	51303
5	4841	18150	51621
5	4849	18180	51612
5	4857	18210	51278
5	4865	18240	50682
5	4873	18270	51585
5	4881	18300	51074
5	4889	18330	51359
5	4897	18360	51311
5	4905	18390	51548
5	4913	18420	51264
5	4921	18450	51178
5	4929	18480	51561
5	4937	18510	51763
5	4945	18540	51261
5	4953	18570	51710
5	4961	18600	51684
5	4969	18630	51282
5	4977	18660	51738
5	4985	18690	51396
5	4993	18720	51706
5	5001	18750	51507
5	5009	18780	51877
5	5017	18810	51823
5	5025	18840	51532
5	5033	18870	51561
5	5041	18900	51563
5	5049	18930	51599
5	5057	18960	52002
5	5065	18990	51888
5	5073	19020	51708
5	5081	19050	51776
5	5089	19080	51893
5	5097	19110	51734
5	5105	19140	51970
5	5113	19170	51776
5	5121	19200	51786
5	5129	19230	51409
5	5137	19260	51649
5	5145	19290	51532
5	5153	19320	52096
5	5161	19350	52387
5	5169	19380	52288
5	5177	19410	52076
5	5185	19440	51696
5	5193	19470	52339
5	5201	19500	52523
5	5209	19530	52162
5	5217	19560	52300
5	5225	19590	52424
5	5233	19620	51908
5	5241	19650	52345
5	5249	19680	52194
5	5257	19710	51869
5	5265	19740	52341
5	5273	19770	51956
5	5281	19800	52320
5	5289	19830	51705
5	5297	19860	52343
5	5305	19890	52143
5	5313	19920	52270
5	5321	19950	52045
5	5329	19980	52066
5	5337	20010	52404
5	5345	20040	51960
5	5353	20070	52217
5	5361	20100	51972
5	5369	20130	52279
5	5377	20160	52554
5	5385	20190	53042
5	5393	20220	52602
5	5401	20250	52334
5	5409	20280	52788
5	5417	20310	52674
5	5425	20340	52792
5	5433	20370	52314
5	5441	20400	52488
5	5449	20430	52760
5	5457	20460	52558
5	5465	20490	52408
5	5473	20520	52204
5	5481	20550	52168
5	5489	20580	52527
5	5497	20610	52236
5	5505	20640	52766
5	5513	20670	52453
5	5521	20700	52475
5	5529	20730	52851
5	5537	20760	52956
5	5545	20790	52695
5	5553	20820	52449
5	5561	20850	52310
5	5569	20880	53139
5	5577	20910	52712
5	5585	20940	52614
5	5593	20970	53010
5	5601	21000	53032
5	5609	21030	52741
5	5617	21060	52926
5	5625	21090	53046
5	5633	21120	52737
5	5641	21150	52989
5	5649	21180	52677
5	5657	21210	52504
5	5665	21240	52965
5	5673	21270	52630
5	5681	21300	52533
5	5689	21330	52607
5	5697	21360	52934
5	5705	21390	53114
5	5713	21420	53148
5	5721	21450	53033
5	5729	21480	52596
5	5737	21510	52692
5	5745	21540	53421
5	5753	21570	53085
5	5761	21600	53187
5	5769	21630	53258
5	5777	21660	53412
5	5785	21690	53319
5	5793	21720	53386
5	5801	21750	53199
5	5809	21780	53155
5	5817	21810	53274
5	5825	21840	53392
5	5833	21870	52841
5	5841	21900	53364
5	5849	21930	53537
5	5857	21960	53395
5	5865	21990	53368
5	5873	22020	53471
5	5881	22050	53161
5	5889	22080	53422
5	5897	22110	53822
5	5905	22140	53396
5	5913	22170	53658
5	5921	22200	53280
5	5929	22230	53350
5	5937	22260	53414
5	5945	22290	53467
5	5953	22320	53544
5	5961	22350	53598
5	5969	22380	53729
5	5977	22410	53715
5	5985	22440	53263
5	5993	22470	53401
5	6001	22500	53541
5	6009	22530	53990
5	6017	22560	53401
5	6025	22590	53645
5	6033	22620	53674
5	6041	22650	54263
5	6049	22680	53854
5	6057	22710	53488
5	6065	22740	53417
5	6073	22770	53650
5	6081	22800	54010
5	6089	22830	53833
5	6097	22860	54135
5	6105	22890	53758
5	6113	22920	53747
5	6121	22950	53856
5	6129	22980	53754
5	6137	23010	53884
5	6145	23040	54136
5	6153	23070	53898
5	6161	23100	54031
5	6169	23130	53719
5	6177	23160	53874
5	6185	23190	54395
5	6193	23220	54004
5	6201	23250	54227
5	6209	23280	54137
5	6217	23310	53924
5	6225	23340	54108
5	6233	23370	54086
5	6241	23400	54064
5	6249	23430	53978
5	6257	23460	54063
5	6265	23490	54292
5	6273	23520	54243
5	6281	23550	54503
5	6289	23580	54300
5	6297	23610	54491
5	6305	23640	54952
5	6313	23670	54493
5	6321	23700	54623
5	6329	23730	54341
5	6337	23760	54394
5	6345	23790	54636
5	6353	23820	54124
5	6361	23850	54595
5	6369	23880	54261
5	6377	23910	53994
5	6385	23940	54683
5	6393	23970	54817
5	6401	24000	54331
5	6409	24030	55109
5	6417	24060	54205
5	6425	24090	54570
5	6433	24120	54609
5	6441	24150	54768
5	6449	24180	54613
5	6457	24210	54795
5	6465	24240	54574
5	6473	24270	54435
5	6481	24300	54459
5	6489	24330	54654
5	6497	24360	54667
5	6505	24390	54934
5	6513	24420	54807
5	6521	24450	54554
5	6529	24480	54846
5	6537	24510	55191
5	6545	24540	55087
5	6553	24570	54782
5	6561	24600	54944
5	6569	24630	54961
5	6577	24660	55264
5	6585	24690	55015
5	6593	24720	55243
5	6601	24750	55199
5	6609	24780	55467
5	6617	24810	54968
5	6625	24840	54778
5	6633	24870	54712
5	6641	24900	55447
5	6649	24930	55634
5	6657	24960	54475
5	6665	24990	55520
5	6673	25020	54722
5	6681	25050	55092
5	6689	25080	55278
5	6697	25110	55370
5	6705	25140	55025
5	6713	25170	55655
5	6721	25200	54932
5	6729	25230	55153
5	6737	25260	55390
5	6745	25290	54931
5	6753	25320	55274
5	6761	25350	55552
5	6769	25380	55435
5	6777	25410	55039
5	6785	25440	55927
5	6793	25470	55330
5	6801	25500	55385
5	6809	25530	55041
5	6817	25560	55387
5	6825	25590	55430
5	6833	25620	55257
5	6841	25650	55704
5	6849	25680	55628
5	6857	25710	55671
5	6865	25740	56038
5	6873	25770	55356
5	6881	25800	55603
5	6889	25830	55534
5	6897	25860	55540
5	6905	25890	55663
