version 2
run General-0-20161215-16:07:34-11076
attr configname General
attr datetime 20161215-16:07:34
attr experiment General
attr inifile omnetpp.ini
attr iterationvars ""
attr iterationvars2 $repetition=0
attr measurement ""
attr network Netzwerk
attr processid 11076
attr repetition 0
attr replication #0
attr resultdir results
attr runnumber 0
attr seedset 0
param **.message_length 500
param **.sending_interval 30
param **.transceiver_type "\"CC2530\""

vector 1  Netzwerk.Sender.battery  "Power Level"  ETV
vector 3  Netzwerk.Receiver.battery  "Power Level"  ETV
1	1	0	0
1	1	0	200
1	7	30	200
1	7	30	33500
1	10	30	33500
1	10	30	200
1	15	60	200
1	15	60	33500
1	18	60	33500
1	18	60	200
1	23	90	200
1	23	90	33500
1	26	90	33500
1	26	90	200
1	31	120	200
1	31	120	33500
1	34	120	33500
1	34	120	200
1	39	150	200
1	39	150	33500
1	42	150	33500
1	42	150	200
1	47	180	200
1	47	180	33500
1	50	180	33500
1	50	180	200
1	55	210	200
1	55	210	33500
1	58	210	33500
1	58	210	200
1	63	240	200
1	63	240	33500
1	66	240	33500
1	66	240	200
1	71	270	200
1	71	270	33500
1	74	270	33500
1	74	270	200
1	79	300	200
1	79	300	33500
1	82	300	33500
1	82	300	200
1	87	330	200
1	87	330	33500
1	90	330	33500
1	90	330	200
1	95	360	200
1	95	360	33500
1	98	360	33500
1	98	360	200
1	103	390	200
1	103	390	33500
1	106	390	33500
1	106	390	200
1	111	420	200
1	111	420	33500
1	114	420	33500
1	114	420	200
1	119	450	200
1	119	450	33500
1	122	450	33500
1	122	450	200
1	127	480	200
1	127	480	33500
1	130	480	33500
1	130	480	200
1	135	510	200
1	135	510	33500
1	138	510	33500
1	138	510	200
1	143	540	200
1	143	540	33500
1	146	540	33500
1	146	540	200
1	151	570	200
1	151	570	33500
1	154	570	33500
1	154	570	200
1	159	600	200
1	159	600	33500
1	162	600	33500
1	162	600	200
1	167	630	200
1	167	630	33500
1	170	630	33500
1	170	630	200
1	175	660	200
1	175	660	33500
1	178	660	33500
1	178	660	200
1	183	690	200
1	183	690	33500
1	186	690	33500
1	186	690	200
1	191	720	200
1	191	720	33500
1	194	720	33500
1	194	720	200
1	199	750	200
1	199	750	33500
1	202	750	33500
1	202	750	200
1	207	780	200
1	207	780	33500
1	210	780	33500
1	210	780	200
1	215	810	200
1	215	810	33500
1	218	810	33500
1	218	810	200
3	2	0	0
3	2	0	200
3	4	28.5	200
3	4	28.5	24300
3	9	30	24300
3	9	30	200
3	12	58.5	200
3	12	58.5	24300
3	17	60	24300
3	17	60	200
3	20	88.5	200
3	20	88.5	24300
3	25	90	24300
3	25	90	200
3	28	118.5	200
3	28	118.5	24300
3	33	120	24300
3	33	120	200
3	36	148.5	200
3	36	148.5	24300
3	41	150	24300
3	41	150	200
3	44	178.5	200
3	44	178.5	24300
3	49	180	24300
3	49	180	200
3	52	208.5	200
3	52	208.5	24300
3	57	210	24300
3	57	210	200
3	60	238.5	200
3	60	238.5	24300
3	65	240	24300
3	65	240	200
3	68	268.5	200
3	68	268.5	24300
3	73	270	24300
3	73	270	200
3	76	298.5	200
3	76	298.5	24300
3	81	300	24300
3	81	300	200
3	84	328.5	200
3	84	328.5	24300
3	89	330	24300
3	89	330	200
3	92	358.5	200
3	92	358.5	24300
3	97	360	24300
3	97	360	200
3	100	388.5	200
3	100	388.5	24300
3	105	390	24300
3	105	390	200
3	108	418.5	200
3	108	418.5	24300
3	113	420	24300
3	113	420	200
3	116	448.5	200
3	116	448.5	24300
3	121	450	24300
3	121	450	200
3	124	478.5	200
3	124	478.5	24300
3	129	480	24300
3	129	480	200
3	132	508.5	200
3	132	508.5	24300
3	137	510	24300
3	137	510	200
3	140	538.5	200
3	140	538.5	24300
3	145	540	24300
3	145	540	200
3	148	568.5	200
3	148	568.5	24300
3	153	570	24300
3	153	570	200
3	156	598.5	200
3	156	598.5	24300
3	161	600	24300
3	161	600	200
3	164	628.5	200
3	164	628.5	24300
3	169	630	24300
3	169	630	200
3	172	658.5	200
3	172	658.5	24300
3	177	660	24300
3	177	660	200
3	180	688.5	200
3	180	688.5	24300
3	185	690	24300
3	185	690	200
3	188	718.5	200
3	188	718.5	24300
3	193	720	24300
3	193	720	200
3	196	748.5	200
3	196	748.5	24300
3	201	750	24300
3	201	750	200
3	204	778.5	200
3	204	778.5	24300
3	209	780	24300
3	209	780	200
3	212	808.5	200
3	212	808.5	24300
3	217	810	24300
3	217	810	200
3	220	838.5	200
3	220	838.5	24300
