version 2
run General-0-20161220-16:29:40-4860
attr configname General
attr datetime 20161220-16:29:40
attr experiment General
attr inifile omnetpp.ini
attr iterationvars ""
attr iterationvars2 $repetition=0
attr measurement ""
attr network Netzwerk
attr processid 4860
attr repetition 0
attr replication #0
attr resultdir results
attr runnumber 0
attr seedset 0
param **.message_length 500
param **.sending_interval 30
param **.transceiver_type "\"CC2530\""

vector 0  Netzwerk.Sender.battery  "Battery capacity"  ETV
vector 2  Netzwerk.Receiver.battery  "Battery capacity"  ETV
vector 1  Netzwerk.Sender.battery  "Power Level"  ETV
vector 3  Netzwerk.Receiver.battery  "Power Level"  ETV
0	0	0	2232
0	1	0	2232
0	7	30	2231.994
0	10	30	2231.994
0	15	60	2231.988
0	18	60	2231.988
0	23	90	2231.982
0	26	90	2231.982
0	31	120	2231.976
0	34	120	2231.976
0	39	150	2231.97
0	42	150	2231.97
0	47	180	2231.964
0	50	180	2231.964
0	55	210	2231.958
0	58	210	2231.958
0	63	240	2231.952
0	66	240	2231.952
0	71	270	2231.946
0	74	270	2231.946
0	79	300	2231.94
0	82	300	2231.94
0	87	330	2231.934
0	90	330	2231.934
0	95	360	2231.928
0	98	360	2231.928
0	103	390	2231.922
0	106	390	2231.922
0	111	420	2231.916
0	114	420	2231.916
0	119	450	2231.91
0	122	450	2231.91
0	127	480	2231.904
0	130	480	2231.904
0	135	510	2231.898
0	138	510	2231.898
0	143	540	2231.892
0	146	540	2231.892
0	151	570	2231.886
0	154	570	2231.886
0	159	600	2231.88
0	162	600	2231.88
0	167	630	2231.874
0	170	630	2231.874
0	175	660	2231.868
0	178	660	2231.868
0	183	690	2231.862
0	186	690	2231.862
0	191	720	2231.856
0	194	720	2231.856
0	199	750	2231.85
0	202	750	2231.85
0	207	780	2231.844
0	210	780	2231.844
0	215	810	2231.838
0	218	810	2231.838
0	223	840	2231.832
0	226	840	2231.832
0	231	870	2231.826
0	234	870	2231.826
0	239	900	2231.82
0	242	900	2231.82
0	247	930	2231.814
0	250	930	2231.814
0	255	960	2231.808
0	258	960	2231.808
0	263	990	2231.802
0	266	990	2231.802
0	271	1020	2231.796
0	274	1020	2231.796
0	279	1050	2231.79
0	282	1050	2231.79
0	287	1080	2231.784
0	290	1080	2231.784
0	295	1110	2231.778
0	298	1110	2231.778
0	303	1140	2231.772
0	306	1140	2231.772
0	311	1170	2231.766
0	314	1170	2231.766
0	319	1200	2231.76
0	322	1200	2231.76
0	327	1230	2231.754
0	330	1230	2231.754
0	335	1260	2231.748
0	338	1260	2231.748
0	343	1290	2231.742
0	346	1290	2231.742
0	351	1320	2231.736
0	354	1320	2231.736
0	359	1350	2231.73
0	362	1350	2231.73
0	367	1380	2231.724
0	370	1380	2231.724
0	375	1410	2231.718
0	378	1410	2231.718
0	383	1440	2231.712
0	386	1440	2231.712
0	391	1470	2231.706
0	394	1470	2231.706
0	399	1500	2231.7
0	402	1500	2231.7
0	407	1530	2231.694
0	410	1530	2231.694
0	415	1560	2231.688
0	418	1560	2231.688
0	423	1590	2231.682
0	426	1590	2231.682
0	431	1620	2231.676
0	434	1620	2231.676
0	439	1650	2231.67
0	442	1650	2231.67
0	447	1680	2231.664
0	450	1680	2231.664
0	455	1710	2231.658
0	458	1710	2231.658
0	463	1740	2231.652
0	466	1740	2231.652
0	471	1770	2231.646
0	474	1770	2231.646
0	479	1800	2231.64
0	482	1800	2231.64
0	487	1830	2231.634
0	490	1830	2231.634
0	495	1860	2231.628
0	498	1860	2231.628
0	503	1890	2231.622
0	506	1890	2231.622
0	511	1920	2231.616
0	514	1920	2231.616
0	519	1950	2231.61
0	522	1950	2231.61
0	527	1980	2231.604
0	530	1980	2231.604
0	535	2010	2231.598
0	538	2010	2231.598
0	543	2040	2231.592
0	546	2040	2231.592
0	551	2070	2231.586
0	554	2070	2231.586
0	559	2100	2231.58
0	562	2100	2231.58
0	567	2130	2231.574
0	570	2130	2231.574
0	575	2160	2231.568
0	578	2160	2231.568
0	583	2190	2231.562
0	586	2190	2231.562
0	591	2220	2231.556
0	594	2220	2231.556
0	599	2250	2231.55
0	602	2250	2231.55
0	607	2280	2231.544
0	610	2280	2231.544
0	615	2310	2231.538
0	618	2310	2231.538
0	623	2340	2231.532
0	626	2340	2231.532
0	631	2370	2231.526
0	634	2370	2231.526
0	639	2400	2231.52
0	642	2400	2231.52
0	647	2430	2231.514
0	650	2430	2231.514
0	655	2460	2231.508
0	658	2460	2231.508
0	663	2490	2231.502
0	666	2490	2231.502
0	671	2520	2231.496
0	674	2520	2231.496
0	679	2550	2231.49
0	682	2550	2231.49
0	687	2580	2231.484
0	690	2580	2231.484
0	695	2610	2231.478
0	698	2610	2231.478
0	703	2640	2231.472
0	706	2640	2231.472
0	711	2670	2231.466
0	714	2670	2231.466
0	719	2700	2231.46
0	722	2700	2231.46
0	727	2730	2231.454
0	730	2730	2231.454
0	735	2760	2231.448
0	738	2760	2231.448
0	743	2790	2231.442
0	746	2790	2231.442
0	751	2820	2231.436
0	754	2820	2231.436
0	759	2850	2231.43
0	762	2850	2231.43
0	767	2880	2231.424
0	770	2880	2231.424
0	775	2910	2231.418
0	778	2910	2231.418
0	783	2940	2231.412
0	786	2940	2231.412
0	791	2970	2231.406
0	794	2970	2231.406
0	799	3000	2231.4
0	802	3000	2231.4
0	807	3030	2231.394
0	810	3030	2231.394
0	815	3060	2231.388
0	818	3060	2231.388
0	823	3090	2231.382
0	826	3090	2231.382
0	831	3120	2231.376
0	834	3120	2231.376
0	839	3150	2231.37
0	842	3150	2231.37
0	847	3180	2231.364
0	850	3180	2231.364
0	855	3210	2231.358
0	858	3210	2231.358
0	863	3240	2231.352
0	866	3240	2231.352
0	871	3270	2231.346
0	874	3270	2231.346
0	879	3300	2231.34
0	882	3300	2231.34
0	887	3330	2231.334
0	890	3330	2231.334
0	895	3360	2231.328
0	898	3360	2231.328
0	903	3390	2231.322
0	906	3390	2231.322
0	911	3420	2231.316
0	914	3420	2231.316
0	919	3450	2231.31
0	922	3450	2231.31
0	927	3480	2231.304
0	930	3480	2231.304
0	935	3510	2231.298
0	938	3510	2231.298
0	943	3540	2231.292
0	946	3540	2231.292
0	951	3570	2231.286
0	954	3570	2231.286
0	959	3600	2231.28
0	962	3600	2231.28
0	967	3630	2231.274
0	970	3630	2231.274
0	975	3660	2231.268
0	978	3660	2231.268
0	983	3690	2231.262
0	986	3690	2231.262
0	991	3720	2231.256
0	994	3720	2231.256
0	999	3750	2231.25
0	1002	3750	2231.25
0	1007	3780	2231.244
0	1010	3780	2231.244
0	1015	3810	2231.238
0	1018	3810	2231.238
0	1023	3840	2231.232
0	1026	3840	2231.232
0	1031	3870	2231.226
0	1034	3870	2231.226
0	1039	3900	2231.22
0	1042	3900	2231.22
0	1047	3930	2231.214
0	1050	3930	2231.214
0	1055	3960	2231.208
0	1058	3960	2231.208
0	1063	3990	2231.202
0	1066	3990	2231.202
0	1071	4020	2231.196
0	1074	4020	2231.196
0	1079	4050	2231.19
0	1082	4050	2231.19
0	1087	4080	2231.184
0	1090	4080	2231.184
0	1095	4110	2231.178
0	1098	4110	2231.178
0	1103	4140	2231.172
0	1106	4140	2231.172
0	1111	4170	2231.166
0	1114	4170	2231.166
0	1119	4200	2231.16
0	1122	4200	2231.16
0	1127	4230	2231.154
0	1130	4230	2231.154
0	1135	4260	2231.148
0	1138	4260	2231.148
0	1143	4290	2231.142
0	1146	4290	2231.142
0	1151	4320	2231.136
0	1154	4320	2231.136
0	1159	4350	2231.13
0	1162	4350	2231.13
0	1167	4380	2231.124
0	1170	4380	2231.124
0	1175	4410	2231.118
0	1178	4410	2231.118
0	1183	4440	2231.112
0	1186	4440	2231.112
0	1191	4470	2231.106
0	1194	4470	2231.106
0	1199	4500	2231.1
0	1202	4500	2231.1
0	1207	4530	2231.094
0	1210	4530	2231.094
0	1215	4560	2231.088
0	1218	4560	2231.088
0	1223	4590	2231.082
0	1226	4590	2231.082
0	1231	4620	2231.076
0	1234	4620	2231.076
0	1239	4650	2231.07
0	1242	4650	2231.07
0	1247	4680	2231.064
0	1250	4680	2231.064
0	1255	4710	2231.058
0	1258	4710	2231.058
0	1263	4740	2231.052
0	1266	4740	2231.052
0	1271	4770	2231.046
0	1274	4770	2231.046
0	1279	4800	2231.04
0	1282	4800	2231.04
0	1287	4830	2231.034
0	1290	4830	2231.034
0	1295	4860	2231.028
0	1298	4860	2231.028
0	1303	4890	2231.022
0	1306	4890	2231.022
0	1311	4920	2231.016
0	1314	4920	2231.016
0	1319	4950	2231.01
0	1322	4950	2231.01
0	1327	4980	2231.004
0	1330	4980	2231.004
0	1335	5010	2230.998
0	1338	5010	2230.998
0	1343	5040	2230.992
0	1346	5040	2230.992
0	1351	5070	2230.986
0	1354	5070	2230.986
0	1359	5100	2230.98
0	1362	5100	2230.98
0	1367	5130	2230.974
0	1370	5130	2230.974
0	1375	5160	2230.968
0	1378	5160	2230.968
0	1383	5190	2230.962
0	1386	5190	2230.962
0	1391	5220	2230.956
0	1394	5220	2230.956
0	1399	5250	2230.95
0	1402	5250	2230.95
0	1407	5280	2230.944
0	1410	5280	2230.944
0	1415	5310	2230.938
0	1418	5310	2230.938
0	1423	5340	2230.932
0	1426	5340	2230.932
0	1431	5370	2230.926
0	1434	5370	2230.926
0	1439	5400	2230.92
0	1442	5400	2230.92
0	1447	5430	2230.914
0	1450	5430	2230.914
0	1455	5460	2230.908
0	1458	5460	2230.908
0	1463	5490	2230.902
0	1466	5490	2230.902
0	1471	5520	2230.896
0	1474	5520	2230.896
0	1479	5550	2230.89
0	1482	5550	2230.89
0	1487	5580	2230.884
0	1490	5580	2230.884
0	1495	5610	2230.878
0	1498	5610	2230.878
0	1503	5640	2230.872
0	1506	5640	2230.872
0	1511	5670	2230.866
0	1514	5670	2230.866
0	1519	5700	2230.86
0	1522	5700	2230.86
0	1527	5730	2230.854
0	1530	5730	2230.854
0	1535	5760	2230.848
0	1538	5760	2230.848
0	1543	5790	2230.842
0	1546	5790	2230.842
0	1551	5820	2230.836
0	1554	5820	2230.836
0	1559	5850	2230.83
0	1562	5850	2230.83
0	1567	5880	2230.824
0	1570	5880	2230.824
0	1575	5910	2230.818
0	1578	5910	2230.818
0	1583	5940	2230.812
0	1586	5940	2230.812
0	1591	5970	2230.806
0	1594	5970	2230.806
0	1599	6000	2230.8
0	1602	6000	2230.8
0	1607	6030	2230.794
0	1610	6030	2230.794
0	1615	6060	2230.788
0	1618	6060	2230.788
0	1623	6090	2230.782
0	1626	6090	2230.782
0	1631	6120	2230.776
0	1634	6120	2230.776
0	1639	6150	2230.77
0	1642	6150	2230.77
0	1647	6180	2230.764
0	1650	6180	2230.764
0	1655	6210	2230.758
0	1658	6210	2230.758
0	1663	6240	2230.752
0	1666	6240	2230.752
0	1671	6270	2230.746
0	1674	6270	2230.746
0	1679	6300	2230.74
0	1682	6300	2230.74
0	1687	6330	2230.734
0	1690	6330	2230.734
0	1695	6360	2230.728
0	1698	6360	2230.728
0	1703	6390	2230.722
0	1706	6390	2230.722
0	1711	6420	2230.716
0	1714	6420	2230.716
0	1719	6450	2230.71
0	1722	6450	2230.71
0	1727	6480	2230.704
0	1730	6480	2230.704
0	1735	6510	2230.698
0	1738	6510	2230.698
0	1743	6540	2230.692
0	1746	6540	2230.692
0	1751	6570	2230.686
0	1754	6570	2230.686
0	1759	6600	2230.68
0	1762	6600	2230.68
0	1767	6630	2230.674
0	1770	6630	2230.674
0	1775	6660	2230.668
0	1778	6660	2230.668
0	1783	6690	2230.662
0	1786	6690	2230.662
0	1791	6720	2230.656
0	1794	6720	2230.656
0	1799	6750	2230.65
0	1802	6750	2230.65
0	1807	6780	2230.644
0	1810	6780	2230.644
0	1815	6810	2230.638
0	1818	6810	2230.638
0	1823	6840	2230.632
0	1826	6840	2230.632
0	1831	6870	2230.626
0	1834	6870	2230.626
0	1839	6900	2230.62
0	1842	6900	2230.62
0	1847	6930	2230.614
0	1850	6930	2230.614
0	1855	6960	2230.608
0	1858	6960	2230.608
0	1863	6990	2230.602
0	1866	6990	2230.602
0	1871	7020	2230.596
0	1874	7020	2230.596
0	1879	7050	2230.59
0	1882	7050	2230.59
0	1887	7080	2230.584
0	1890	7080	2230.584
0	1895	7110	2230.578
0	1898	7110	2230.578
0	1903	7140	2230.572
0	1906	7140	2230.572
0	1911	7170	2230.566
0	1914	7170	2230.566
0	1919	7200	2230.56
0	1922	7200	2230.56
0	1927	7230	2230.554
0	1930	7230	2230.554
0	1935	7260	2230.548
0	1938	7260	2230.548
0	1943	7290	2230.542
0	1946	7290	2230.542
0	1951	7320	2230.536
0	1954	7320	2230.536
0	1959	7350	2230.53
0	1962	7350	2230.53
0	1967	7380	2230.524
0	1970	7380	2230.524
0	1975	7410	2230.518
0	1978	7410	2230.518
0	1983	7440	2230.512
0	1986	7440	2230.512
0	1991	7470	2230.506
0	1994	7470	2230.506
0	1999	7500	2230.5
0	2002	7500	2230.5
0	2007	7530	2230.494
0	2010	7530	2230.494
0	2015	7560	2230.488
0	2018	7560	2230.488
0	2023	7590	2230.482
0	2026	7590	2230.482
0	2031	7620	2230.476
0	2034	7620	2230.476
0	2039	7650	2230.47
0	2042	7650	2230.47
0	2047	7680	2230.464
0	2050	7680	2230.464
0	2055	7710	2230.458
0	2058	7710	2230.458
0	2063	7740	2230.452
0	2066	7740	2230.452
0	2071	7770	2230.446
0	2074	7770	2230.446
0	2079	7800	2230.44
0	2082	7800	2230.44
0	2087	7830	2230.434
0	2090	7830	2230.434
0	2095	7860	2230.428
0	2098	7860	2230.428
0	2103	7890	2230.422
0	2106	7890	2230.422
0	2111	7920	2230.416
0	2114	7920	2230.416
0	2119	7950	2230.41
0	2122	7950	2230.41
0	2127	7980	2230.404
0	2130	7980	2230.404
0	2135	8010	2230.398
0	2138	8010	2230.398
0	2143	8040	2230.392
0	2146	8040	2230.392
0	2151	8070	2230.386
0	2154	8070	2230.386
0	2159	8100	2230.38
0	2162	8100	2230.38
0	2167	8130	2230.374
0	2170	8130	2230.374
0	2175	8160	2230.368
0	2178	8160	2230.368
0	2183	8190	2230.362
0	2186	8190	2230.362
0	2191	8220	2230.356
0	2194	8220	2230.356
0	2199	8250	2230.35
0	2202	8250	2230.35
0	2207	8280	2230.344
0	2210	8280	2230.344
0	2215	8310	2230.338
0	2218	8310	2230.338
0	2223	8340	2230.332
0	2226	8340	2230.332
0	2231	8370	2230.326
0	2234	8370	2230.326
0	2239	8400	2230.32
0	2242	8400	2230.32
0	2247	8430	2230.314
0	2250	8430	2230.314
0	2255	8460	2230.308
0	2258	8460	2230.308
0	2263	8490	2230.302
0	2266	8490	2230.302
0	2271	8520	2230.296
0	2274	8520	2230.296
0	2279	8550	2230.29
0	2282	8550	2230.29
0	2287	8580	2230.284
0	2290	8580	2230.284
0	2295	8610	2230.278
0	2298	8610	2230.278
0	2303	8640	2230.272
0	2306	8640	2230.272
0	2311	8670	2230.266
0	2314	8670	2230.266
0	2319	8700	2230.26
0	2322	8700	2230.26
0	2327	8730	2230.254
0	2330	8730	2230.254
0	2335	8760	2230.248
0	2338	8760	2230.248
0	2343	8790	2230.242
0	2346	8790	2230.242
0	2351	8820	2230.236
0	2354	8820	2230.236
0	2359	8850	2230.23
0	2362	8850	2230.23
0	2367	8880	2230.224
0	2370	8880	2230.224
0	2375	8910	2230.218
0	2378	8910	2230.218
0	2383	8940	2230.212
0	2386	8940	2230.212
0	2391	8970	2230.206
0	2394	8970	2230.206
0	2399	9000	2230.2
0	2402	9000	2230.2
0	2407	9030	2230.194
0	2410	9030	2230.194
0	2415	9060	2230.188
0	2418	9060	2230.188
0	2423	9090	2230.182
0	2426	9090	2230.182
0	2431	9120	2230.176
0	2434	9120	2230.176
0	2439	9150	2230.17
0	2442	9150	2230.17
0	2447	9180	2230.164
0	2450	9180	2230.164
0	2455	9210	2230.158
0	2458	9210	2230.158
0	2463	9240	2230.152
0	2466	9240	2230.152
0	2471	9270	2230.146
0	2474	9270	2230.146
0	2479	9300	2230.14
0	2482	9300	2230.14
0	2487	9330	2230.134
0	2490	9330	2230.134
0	2495	9360	2230.128
0	2498	9360	2230.128
0	2503	9390	2230.122
0	2506	9390	2230.122
0	2511	9420	2230.116
0	2514	9420	2230.116
0	2519	9450	2230.11
0	2522	9450	2230.11
0	2527	9480	2230.104
0	2530	9480	2230.104
0	2535	9510	2230.098
0	2538	9510	2230.098
0	2543	9540	2230.092
0	2546	9540	2230.092
0	2551	9570	2230.086
0	2554	9570	2230.086
0	2559	9600	2230.08
0	2562	9600	2230.08
0	2567	9630	2230.074
0	2570	9630	2230.074
0	2575	9660	2230.068
0	2578	9660	2230.068
0	2583	9690	2230.062
0	2586	9690	2230.062
0	2591	9720	2230.056
0	2594	9720	2230.056
0	2599	9750	2230.05
0	2602	9750	2230.05
0	2607	9780	2230.044
0	2610	9780	2230.044
0	2615	9810	2230.038
0	2618	9810	2230.038
0	2623	9840	2230.032
0	2626	9840	2230.032
0	2631	9870	2230.026
0	2634	9870	2230.026
0	2639	9900	2230.02
0	2642	9900	2230.02
0	2647	9930	2230.014
0	2650	9930	2230.014
0	2655	9960	2230.008
0	2658	9960	2230.008
0	2663	9990	2230.002
0	2666	9990	2230.002
0	2671	10020	2229.996
0	2674	10020	2229.996
0	2679	10050	2229.99
0	2682	10050	2229.99
0	2687	10080	2229.984
0	2690	10080	2229.984
0	2695	10110	2229.978
0	2698	10110	2229.978
0	2703	10140	2229.972
0	2706	10140	2229.972
0	2711	10170	2229.966
0	2714	10170	2229.966
0	2719	10200	2229.96
0	2722	10200	2229.96
0	2727	10230	2229.954
0	2730	10230	2229.954
0	2735	10260	2229.948
0	2738	10260	2229.948
0	2743	10290	2229.942
0	2746	10290	2229.942
0	2751	10320	2229.936
0	2754	10320	2229.936
0	2759	10350	2229.93
0	2762	10350	2229.93
0	2767	10380	2229.924
0	2770	10380	2229.924
0	2775	10410	2229.918
0	2778	10410	2229.918
0	2783	10440	2229.912
0	2786	10440	2229.912
0	2791	10470	2229.906
0	2794	10470	2229.906
0	2799	10500	2229.9
0	2802	10500	2229.9
0	2807	10530	2229.894
0	2810	10530	2229.894
0	2815	10560	2229.888
0	2818	10560	2229.888
0	2823	10590	2229.882
0	2826	10590	2229.882
0	2831	10620	2229.876
0	2834	10620	2229.876
0	2839	10650	2229.87
0	2842	10650	2229.87
0	2847	10680	2229.864
0	2850	10680	2229.864
0	2855	10710	2229.858
0	2858	10710	2229.858
0	2863	10740	2229.852
0	2866	10740	2229.852
0	2871	10770	2229.846
0	2874	10770	2229.846
0	2879	10800	2229.84
0	2882	10800	2229.84
0	2887	10830	2229.834
0	2890	10830	2229.834
0	2895	10860	2229.828
0	2898	10860	2229.828
0	2903	10890	2229.822
0	2906	10890	2229.822
0	2911	10920	2229.816
0	2914	10920	2229.816
0	2919	10950	2229.81
0	2922	10950	2229.81
0	2927	10980	2229.804
0	2930	10980	2229.804
0	2935	11010	2229.798
0	2938	11010	2229.798
0	2943	11040	2229.792
0	2946	11040	2229.792
0	2951	11070	2229.786
0	2954	11070	2229.786
0	2959	11100	2229.78
0	2962	11100	2229.78
0	2967	11130	2229.774
0	2970	11130	2229.774
0	2975	11160	2229.768
0	2978	11160	2229.768
0	2983	11190	2229.762
0	2986	11190	2229.762
0	2991	11220	2229.756
0	2994	11220	2229.756
0	2999	11250	2229.75
0	3002	11250	2229.75
0	3007	11280	2229.744
0	3010	11280	2229.744
0	3015	11310	2229.738
0	3018	11310	2229.738
0	3023	11340	2229.732
0	3026	11340	2229.732
0	3031	11370	2229.726
0	3034	11370	2229.726
0	3039	11400	2229.72
0	3042	11400	2229.72
0	3047	11430	2229.714
0	3050	11430	2229.714
0	3055	11460	2229.708
0	3058	11460	2229.708
0	3063	11490	2229.702
0	3066	11490	2229.702
0	3071	11520	2229.696
0	3074	11520	2229.696
0	3079	11550	2229.69
0	3082	11550	2229.69
0	3087	11580	2229.684
0	3090	11580	2229.684
0	3095	11610	2229.678
0	3098	11610	2229.678
0	3103	11640	2229.672
0	3106	11640	2229.672
0	3111	11670	2229.666
0	3114	11670	2229.666
0	3119	11700	2229.66
0	3122	11700	2229.66
0	3127	11730	2229.654
0	3130	11730	2229.654
0	3135	11760	2229.648
0	3138	11760	2229.648
0	3143	11790	2229.642
0	3146	11790	2229.642
0	3151	11820	2229.636
0	3154	11820	2229.636
0	3159	11850	2229.63
0	3162	11850	2229.63
0	3167	11880	2229.624
0	3170	11880	2229.624
0	3175	11910	2229.618
0	3178	11910	2229.618
0	3183	11940	2229.612
0	3186	11940	2229.612
0	3191	11970	2229.606
0	3194	11970	2229.606
0	3199	12000	2229.6
0	3202	12000	2229.6
0	3207	12030	2229.594
0	3210	12030	2229.594
0	3215	12060	2229.588
0	3218	12060	2229.588
0	3223	12090	2229.582
0	3226	12090	2229.582
0	3231	12120	2229.576
0	3234	12120	2229.576
0	3239	12150	2229.57
0	3242	12150	2229.57
0	3247	12180	2229.564
0	3250	12180	2229.564
0	3255	12210	2229.558
0	3258	12210	2229.558
0	3263	12240	2229.552
0	3266	12240	2229.552
0	3271	12270	2229.546
0	3274	12270	2229.546
0	3279	12300	2229.54
0	3282	12300	2229.54
0	3287	12330	2229.534
0	3290	12330	2229.534
0	3295	12360	2229.528
0	3298	12360	2229.528
0	3303	12390	2229.522
0	3306	12390	2229.522
0	3311	12420	2229.516
0	3314	12420	2229.516
0	3319	12450	2229.51
0	3322	12450	2229.51
0	3327	12480	2229.504
0	3330	12480	2229.504
0	3335	12510	2229.498
0	3338	12510	2229.498
0	3343	12540	2229.492
0	3346	12540	2229.492
0	3351	12570	2229.486
0	3354	12570	2229.486
0	3359	12600	2229.48
0	3362	12600	2229.48
0	3367	12630	2229.474
0	3370	12630	2229.474
0	3375	12660	2229.468
0	3378	12660	2229.468
0	3383	12690	2229.462
0	3386	12690	2229.462
0	3391	12720	2229.456
0	3394	12720	2229.456
0	3399	12750	2229.45
0	3402	12750	2229.45
0	3407	12780	2229.444
0	3410	12780	2229.444
0	3415	12810	2229.438
0	3418	12810	2229.438
0	3423	12840	2229.432
0	3426	12840	2229.432
0	3431	12870	2229.426
0	3434	12870	2229.426
0	3439	12900	2229.42
0	3442	12900	2229.42
0	3447	12930	2229.414
0	3450	12930	2229.414
0	3455	12960	2229.408
0	3458	12960	2229.408
0	3463	12990	2229.402
0	3466	12990	2229.402
0	3471	13020	2229.396
0	3474	13020	2229.396
0	3479	13050	2229.39
0	3482	13050	2229.39
0	3487	13080	2229.384
0	3490	13080	2229.384
0	3495	13110	2229.378
0	3498	13110	2229.378
0	3503	13140	2229.372
0	3506	13140	2229.372
0	3511	13170	2229.366
0	3514	13170	2229.366
0	3519	13200	2229.36
0	3522	13200	2229.36
0	3527	13230	2229.354
0	3530	13230	2229.354
0	3535	13260	2229.348
0	3538	13260	2229.348
0	3543	13290	2229.342
0	3546	13290	2229.342
0	3551	13320	2229.336
0	3554	13320	2229.336
0	3559	13350	2229.33
0	3562	13350	2229.33
0	3567	13380	2229.324
0	3570	13380	2229.324
0	3575	13410	2229.318
0	3578	13410	2229.318
0	3583	13440	2229.312
0	3586	13440	2229.312
0	3591	13470	2229.306
0	3594	13470	2229.306
0	3599	13500	2229.3
0	3602	13500	2229.3
0	3607	13530	2229.294
0	3610	13530	2229.294
0	3615	13560	2229.288
0	3618	13560	2229.288
0	3623	13590	2229.282
0	3626	13590	2229.282
0	3631	13620	2229.276
0	3634	13620	2229.276
0	3639	13650	2229.27
0	3642	13650	2229.27
0	3647	13680	2229.264
0	3650	13680	2229.264
0	3655	13710	2229.258
0	3658	13710	2229.258
0	3663	13740	2229.252
0	3666	13740	2229.252
0	3671	13770	2229.246
0	3674	13770	2229.246
0	3679	13800	2229.24
0	3682	13800	2229.24
0	3687	13830	2229.234
0	3690	13830	2229.234
0	3695	13860	2229.228
0	3698	13860	2229.228
0	3703	13890	2229.222
0	3706	13890	2229.222
0	3711	13920	2229.216
0	3714	13920	2229.216
0	3719	13950	2229.21
0	3722	13950	2229.21
0	3727	13980	2229.204
0	3730	13980	2229.204
0	3735	14010	2229.198
0	3738	14010	2229.198
0	3743	14040	2229.192
0	3746	14040	2229.192
0	3751	14070	2229.186
0	3754	14070	2229.186
0	3759	14100	2229.18
0	3762	14100	2229.18
0	3767	14130	2229.174
0	3770	14130	2229.174
0	3775	14160	2229.168
0	3778	14160	2229.168
0	3783	14190	2229.162
0	3786	14190	2229.162
0	3791	14220	2229.156
0	3794	14220	2229.156
0	3799	14250	2229.15
0	3802	14250	2229.15
0	3807	14280	2229.144
0	3810	14280	2229.144
0	3815	14310	2229.138
0	3818	14310	2229.138
0	3823	14340	2229.132
0	3826	14340	2229.132
0	3831	14370	2229.126
0	3834	14370	2229.126
0	3839	14400	2229.12
0	3842	14400	2229.12
0	3847	14430	2229.114
0	3850	14430	2229.114
0	3855	14460	2229.108
0	3858	14460	2229.108
0	3863	14490	2229.102
0	3866	14490	2229.102
0	3871	14520	2229.096
0	3874	14520	2229.096
0	3879	14550	2229.09
0	3882	14550	2229.09
0	3887	14580	2229.084
0	3890	14580	2229.084
0	3895	14610	2229.078
0	3898	14610	2229.078
0	3903	14640	2229.072
0	3906	14640	2229.072
0	3911	14670	2229.066
0	3914	14670	2229.066
0	3919	14700	2229.06
0	3922	14700	2229.06
0	3927	14730	2229.054
0	3930	14730	2229.054
0	3935	14760	2229.048
0	3938	14760	2229.048
0	3943	14790	2229.042
0	3946	14790	2229.042
0	3951	14820	2229.036
0	3954	14820	2229.036
0	3959	14850	2229.03
0	3962	14850	2229.03
0	3967	14880	2229.024
0	3970	14880	2229.024
0	3975	14910	2229.018
0	3978	14910	2229.018
0	3983	14940	2229.012
0	3986	14940	2229.012
0	3991	14970	2229.006
0	3994	14970	2229.006
0	3999	15000	2229
0	4002	15000	2229
0	4007	15030	2228.994
0	4010	15030	2228.994
0	4015	15060	2228.988
0	4018	15060	2228.988
0	4023	15090	2228.982
0	4026	15090	2228.982
0	4031	15120	2228.976
0	4034	15120	2228.976
0	4039	15150	2228.97
0	4042	15150	2228.97
0	4047	15180	2228.964
0	4050	15180	2228.964
0	4055	15210	2228.958
0	4058	15210	2228.958
0	4063	15240	2228.952
0	4066	15240	2228.952
0	4071	15270	2228.946
0	4074	15270	2228.946
0	4079	15300	2228.94
0	4082	15300	2228.94
0	4087	15330	2228.934
0	4090	15330	2228.934
0	4095	15360	2228.928
0	4098	15360	2228.928
0	4103	15390	2228.922
0	4106	15390	2228.922
0	4111	15420	2228.916
0	4114	15420	2228.916
0	4119	15450	2228.91
0	4122	15450	2228.91
0	4127	15480	2228.904
0	4130	15480	2228.904
0	4135	15510	2228.898
0	4138	15510	2228.898
0	4143	15540	2228.892
0	4146	15540	2228.892
0	4151	15570	2228.886
0	4154	15570	2228.886
0	4159	15600	2228.88
0	4162	15600	2228.88
0	4167	15630	2228.874
0	4170	15630	2228.874
0	4175	15660	2228.868
0	4178	15660	2228.868
0	4183	15690	2228.862
0	4186	15690	2228.862
0	4191	15720	2228.856
0	4194	15720	2228.856
0	4199	15750	2228.85
0	4202	15750	2228.85
0	4207	15780	2228.844
0	4210	15780	2228.844
0	4215	15810	2228.838
0	4218	15810	2228.838
0	4223	15840	2228.832
0	4226	15840	2228.832
0	4231	15870	2228.826
0	4234	15870	2228.826
0	4239	15900	2228.82
0	4242	15900	2228.82
0	4247	15930	2228.814
0	4250	15930	2228.814
0	4255	15960	2228.808
0	4258	15960	2228.808
0	4263	15990	2228.802
0	4266	15990	2228.802
0	4271	16020	2228.796
0	4274	16020	2228.796
0	4279	16050	2228.79
0	4282	16050	2228.79
0	4287	16080	2228.784
0	4290	16080	2228.784
0	4295	16110	2228.778
0	4298	16110	2228.778
0	4303	16140	2228.772
0	4306	16140	2228.772
0	4311	16170	2228.766
0	4314	16170	2228.766
0	4319	16200	2228.76
0	4322	16200	2228.76
0	4327	16230	2228.754
0	4330	16230	2228.754
0	4335	16260	2228.748
0	4338	16260	2228.748
0	4343	16290	2228.742
0	4346	16290	2228.742
0	4351	16320	2228.736
0	4354	16320	2228.736
0	4359	16350	2228.73
0	4362	16350	2228.73
0	4367	16380	2228.724
0	4370	16380	2228.724
0	4375	16410	2228.718
0	4378	16410	2228.718
0	4383	16440	2228.712
0	4386	16440	2228.712
0	4391	16470	2228.706
0	4394	16470	2228.706
0	4399	16500	2228.7
0	4402	16500	2228.7
0	4407	16530	2228.694
0	4410	16530	2228.694
0	4415	16560	2228.688
0	4418	16560	2228.688
0	4423	16590	2228.682
0	4426	16590	2228.682
0	4431	16620	2228.676
0	4434	16620	2228.676
0	4439	16650	2228.67
0	4442	16650	2228.67
0	4447	16680	2228.664
0	4450	16680	2228.664
0	4455	16710	2228.658
0	4458	16710	2228.658
0	4463	16740	2228.652
0	4466	16740	2228.652
0	4471	16770	2228.646
0	4474	16770	2228.646
0	4479	16800	2228.64
0	4482	16800	2228.64
0	4487	16830	2228.634
0	4490	16830	2228.634
0	4495	16860	2228.628
0	4498	16860	2228.628
0	4503	16890	2228.622
0	4506	16890	2228.622
0	4511	16920	2228.616
0	4514	16920	2228.616
0	4519	16950	2228.61
0	4522	16950	2228.61
0	4527	16980	2228.604
0	4530	16980	2228.604
0	4535	17010	2228.598
0	4538	17010	2228.598
0	4543	17040	2228.592
0	4546	17040	2228.592
0	4551	17070	2228.586
0	4554	17070	2228.586
0	4559	17100	2228.58
0	4562	17100	2228.58
0	4567	17130	2228.574
0	4570	17130	2228.574
0	4575	17160	2228.568
0	4578	17160	2228.568
0	4583	17190	2228.562
0	4586	17190	2228.562
0	4591	17220	2228.556
0	4594	17220	2228.556
0	4599	17250	2228.55
0	4602	17250	2228.55
0	4607	17280	2228.544
0	4610	17280	2228.544
0	4615	17310	2228.538
0	4618	17310	2228.538
0	4623	17340	2228.532
0	4626	17340	2228.532
0	4631	17370	2228.526
0	4634	17370	2228.526
0	4639	17400	2228.52
0	4642	17400	2228.52
0	4647	17430	2228.514
0	4650	17430	2228.514
0	4655	17460	2228.508
0	4658	17460	2228.508
0	4663	17490	2228.502
0	4666	17490	2228.502
0	4671	17520	2228.496
0	4674	17520	2228.496
0	4679	17550	2228.49
0	4682	17550	2228.49
0	4687	17580	2228.484
0	4690	17580	2228.484
0	4695	17610	2228.478
0	4698	17610	2228.478
0	4703	17640	2228.472
0	4706	17640	2228.472
0	4711	17670	2228.466
0	4714	17670	2228.466
0	4719	17700	2228.46
0	4722	17700	2228.46
0	4727	17730	2228.454
0	4730	17730	2228.454
0	4735	17760	2228.448
0	4738	17760	2228.448
0	4743	17790	2228.442
0	4746	17790	2228.442
0	4751	17820	2228.436
0	4754	17820	2228.436
0	4759	17850	2228.43
0	4762	17850	2228.43
0	4767	17880	2228.424
0	4770	17880	2228.424
0	4775	17910	2228.418
0	4778	17910	2228.418
0	4783	17940	2228.412
0	4786	17940	2228.412
0	4791	17970	2228.406
0	4794	17970	2228.406
0	4799	18000	2228.4
0	4802	18000	2228.4
0	4807	18030	2228.394
0	4810	18030	2228.394
0	4815	18060	2228.388
0	4818	18060	2228.388
0	4823	18090	2228.382
0	4826	18090	2228.382
0	4831	18120	2228.376
0	4834	18120	2228.376
0	4839	18150	2228.37
0	4842	18150	2228.37
0	4847	18180	2228.364
0	4850	18180	2228.364
0	4855	18210	2228.358
0	4858	18210	2228.358
0	4863	18240	2228.352
0	4866	18240	2228.352
0	4871	18270	2228.346
0	4874	18270	2228.346
0	4879	18300	2228.34
0	4882	18300	2228.34
0	4887	18330	2228.334
0	4890	18330	2228.334
0	4895	18360	2228.328
0	4898	18360	2228.328
0	4903	18390	2228.322
0	4906	18390	2228.322
0	4911	18420	2228.316
0	4914	18420	2228.316
0	4919	18450	2228.31
0	4922	18450	2228.31
0	4927	18480	2228.304
0	4930	18480	2228.304
0	4935	18510	2228.298
0	4938	18510	2228.298
0	4943	18540	2228.292
0	4946	18540	2228.292
0	4951	18570	2228.286
0	4954	18570	2228.286
0	4959	18600	2228.28
0	4962	18600	2228.28
0	4967	18630	2228.274
0	4970	18630	2228.274
0	4975	18660	2228.268
0	4978	18660	2228.268
0	4983	18690	2228.262
0	4986	18690	2228.262
0	4991	18720	2228.256
0	4994	18720	2228.256
0	4999	18750	2228.25
0	5002	18750	2228.25
0	5007	18780	2228.244
0	5010	18780	2228.244
0	5015	18810	2228.238
0	5018	18810	2228.238
0	5023	18840	2228.232
0	5026	18840	2228.232
0	5031	18870	2228.226
0	5034	18870	2228.226
0	5039	18900	2228.22
0	5042	18900	2228.22
0	5047	18930	2228.214
0	5050	18930	2228.214
0	5055	18960	2228.208
0	5058	18960	2228.208
0	5063	18990	2228.202
0	5066	18990	2228.202
0	5071	19020	2228.196
0	5074	19020	2228.196
0	5079	19050	2228.19
0	5082	19050	2228.19
0	5087	19080	2228.184
0	5090	19080	2228.184
0	5095	19110	2228.178
0	5098	19110	2228.178
0	5103	19140	2228.172
0	5106	19140	2228.172
0	5111	19170	2228.166
0	5114	19170	2228.166
0	5119	19200	2228.16
0	5122	19200	2228.16
0	5127	19230	2228.154
0	5130	19230	2228.154
0	5135	19260	2228.148
0	5138	19260	2228.148
0	5143	19290	2228.142
0	5146	19290	2228.142
0	5151	19320	2228.136
0	5154	19320	2228.136
0	5159	19350	2228.13
0	5162	19350	2228.13
0	5167	19380	2228.124
0	5170	19380	2228.124
0	5175	19410	2228.118
0	5178	19410	2228.118
0	5183	19440	2228.112
0	5186	19440	2228.112
0	5191	19470	2228.106
0	5194	19470	2228.106
0	5199	19500	2228.1
0	5202	19500	2228.1
0	5207	19530	2228.094
0	5210	19530	2228.094
0	5215	19560	2228.088
0	5218	19560	2228.088
0	5223	19590	2228.082
0	5226	19590	2228.082
0	5231	19620	2228.076
0	5234	19620	2228.076
0	5239	19650	2228.07
0	5242	19650	2228.07
0	5247	19680	2228.064
0	5250	19680	2228.064
0	5255	19710	2228.058
0	5258	19710	2228.058
0	5263	19740	2228.052
0	5266	19740	2228.052
0	5271	19770	2228.046
0	5274	19770	2228.046
0	5279	19800	2228.04
0	5282	19800	2228.04
0	5287	19830	2228.034
0	5290	19830	2228.034
0	5295	19860	2228.028
0	5298	19860	2228.028
0	5303	19890	2228.022
0	5306	19890	2228.022
0	5311	19920	2228.016
0	5314	19920	2228.016
0	5319	19950	2228.01
0	5322	19950	2228.01
0	5327	19980	2228.004
0	5330	19980	2228.004
0	5335	20010	2227.998
0	5338	20010	2227.998
0	5343	20040	2227.992
0	5346	20040	2227.992
0	5351	20070	2227.986
0	5354	20070	2227.986
0	5359	20100	2227.98
0	5362	20100	2227.98
0	5367	20130	2227.974
0	5370	20130	2227.974
0	5375	20160	2227.968
0	5378	20160	2227.968
0	5383	20190	2227.962
0	5386	20190	2227.962
0	5391	20220	2227.956
0	5394	20220	2227.956
0	5399	20250	2227.95
0	5402	20250	2227.95
0	5407	20280	2227.944
0	5410	20280	2227.944
0	5415	20310	2227.938
0	5418	20310	2227.938
0	5423	20340	2227.932
0	5426	20340	2227.932
0	5431	20370	2227.926
0	5434	20370	2227.926
0	5439	20400	2227.92
0	5442	20400	2227.92
0	5447	20430	2227.914
0	5450	20430	2227.914
0	5455	20460	2227.908
0	5458	20460	2227.908
0	5463	20490	2227.902
0	5466	20490	2227.902
0	5471	20520	2227.896
0	5474	20520	2227.896
0	5479	20550	2227.89
0	5482	20550	2227.89
0	5487	20580	2227.884
0	5490	20580	2227.884
0	5495	20610	2227.878
0	5498	20610	2227.878
0	5503	20640	2227.872
0	5506	20640	2227.872
0	5511	20670	2227.866
0	5514	20670	2227.866
0	5519	20700	2227.86
0	5522	20700	2227.86
0	5527	20730	2227.854
0	5530	20730	2227.854
0	5535	20760	2227.848
0	5538	20760	2227.848
0	5543	20790	2227.842
0	5546	20790	2227.842
0	5551	20820	2227.836
0	5554	20820	2227.836
0	5559	20850	2227.83
0	5562	20850	2227.83
0	5567	20880	2227.824
0	5570	20880	2227.824
0	5575	20910	2227.818
0	5578	20910	2227.818
0	5583	20940	2227.812
0	5586	20940	2227.812
0	5591	20970	2227.806
0	5594	20970	2227.806
0	5599	21000	2227.8
0	5602	21000	2227.8
0	5607	21030	2227.794
0	5610	21030	2227.794
0	5615	21060	2227.788
0	5618	21060	2227.788
0	5623	21090	2227.782
0	5626	21090	2227.782
0	5631	21120	2227.776
0	5634	21120	2227.776
0	5639	21150	2227.77
0	5642	21150	2227.77
0	5647	21180	2227.764
0	5650	21180	2227.764
0	5655	21210	2227.758
0	5658	21210	2227.758
0	5663	21240	2227.752
0	5666	21240	2227.752
0	5671	21270	2227.746
0	5674	21270	2227.746
0	5679	21300	2227.74
0	5682	21300	2227.74
0	5687	21330	2227.734
0	5690	21330	2227.734
0	5695	21360	2227.728
0	5698	21360	2227.728
0	5703	21390	2227.722
0	5706	21390	2227.722
0	5711	21420	2227.716
0	5714	21420	2227.716
0	5719	21450	2227.71
0	5722	21450	2227.71
0	5727	21480	2227.704
0	5730	21480	2227.704
0	5735	21510	2227.698
0	5738	21510	2227.698
0	5743	21540	2227.692
0	5746	21540	2227.692
0	5751	21570	2227.686
0	5754	21570	2227.686
0	5759	21600	2227.68
0	5762	21600	2227.68
0	5767	21630	2227.674
0	5770	21630	2227.674
0	5775	21660	2227.668
0	5778	21660	2227.668
0	5783	21690	2227.662
0	5786	21690	2227.662
0	5791	21720	2227.656
0	5794	21720	2227.656
0	5799	21750	2227.65
0	5802	21750	2227.65
0	5807	21780	2227.644
0	5810	21780	2227.644
0	5815	21810	2227.638
0	5818	21810	2227.638
0	5823	21840	2227.632
0	5826	21840	2227.632
0	5831	21870	2227.626
0	5834	21870	2227.626
0	5839	21900	2227.62
0	5842	21900	2227.62
0	5847	21930	2227.614
0	5850	21930	2227.614
0	5855	21960	2227.608
0	5858	21960	2227.608
0	5863	21990	2227.602
0	5866	21990	2227.602
0	5871	22020	2227.596
0	5874	22020	2227.596
0	5879	22050	2227.59
0	5882	22050	2227.59
0	5887	22080	2227.584
0	5890	22080	2227.584
0	5895	22110	2227.578
0	5898	22110	2227.578
0	5903	22140	2227.572
0	5906	22140	2227.572
0	5911	22170	2227.566
0	5914	22170	2227.566
0	5919	22200	2227.56
0	5922	22200	2227.56
0	5927	22230	2227.554
0	5930	22230	2227.554
0	5935	22260	2227.548
0	5938	22260	2227.548
0	5943	22290	2227.542
0	5946	22290	2227.542
0	5951	22320	2227.536
0	5954	22320	2227.536
0	5959	22350	2227.53
0	5962	22350	2227.53
0	5967	22380	2227.524
0	5970	22380	2227.524
0	5975	22410	2227.518
0	5978	22410	2227.518
0	5983	22440	2227.512
0	5986	22440	2227.512
0	5991	22470	2227.506
0	5994	22470	2227.506
0	5999	22500	2227.5
0	6002	22500	2227.5
0	6007	22530	2227.494
0	6010	22530	2227.494
0	6015	22560	2227.488
0	6018	22560	2227.488
0	6023	22590	2227.482
0	6026	22590	2227.482
0	6031	22620	2227.476
0	6034	22620	2227.476
0	6039	22650	2227.47
0	6042	22650	2227.47
0	6047	22680	2227.464
0	6050	22680	2227.464
0	6055	22710	2227.458
0	6058	22710	2227.458
0	6063	22740	2227.452
0	6066	22740	2227.452
0	6071	22770	2227.446
0	6074	22770	2227.446
0	6079	22800	2227.44
0	6082	22800	2227.44
0	6087	22830	2227.434
0	6090	22830	2227.434
0	6095	22860	2227.428
0	6098	22860	2227.428
0	6103	22890	2227.422
0	6106	22890	2227.422
0	6111	22920	2227.416
0	6114	22920	2227.416
0	6119	22950	2227.41
0	6122	22950	2227.41
0	6127	22980	2227.404
0	6130	22980	2227.404
0	6135	23010	2227.398
0	6138	23010	2227.398
0	6143	23040	2227.392
0	6146	23040	2227.392
0	6151	23070	2227.386
0	6154	23070	2227.386
0	6159	23100	2227.38
0	6162	23100	2227.38
0	6167	23130	2227.374
0	6170	23130	2227.374
0	6175	23160	2227.368
0	6178	23160	2227.368
0	6183	23190	2227.362
0	6186	23190	2227.362
0	6191	23220	2227.356
0	6194	23220	2227.356
0	6199	23250	2227.35
0	6202	23250	2227.35
0	6207	23280	2227.344
0	6210	23280	2227.344
0	6215	23310	2227.338
0	6218	23310	2227.338
0	6223	23340	2227.332
0	6226	23340	2227.332
0	6231	23370	2227.326
0	6234	23370	2227.326
0	6239	23400	2227.32
0	6242	23400	2227.32
0	6247	23430	2227.314
0	6250	23430	2227.314
0	6255	23460	2227.308
0	6258	23460	2227.308
0	6263	23490	2227.302
0	6266	23490	2227.302
0	6271	23520	2227.296
0	6274	23520	2227.296
0	6279	23550	2227.29
0	6282	23550	2227.29
0	6287	23580	2227.284
0	6290	23580	2227.284
0	6295	23610	2227.278
0	6298	23610	2227.278
0	6303	23640	2227.272
0	6306	23640	2227.272
0	6311	23670	2227.266
0	6314	23670	2227.266
0	6319	23700	2227.26
0	6322	23700	2227.26
0	6327	23730	2227.254
0	6330	23730	2227.254
0	6335	23760	2227.248
0	6338	23760	2227.248
0	6343	23790	2227.242
0	6346	23790	2227.242
0	6351	23820	2227.236
0	6354	23820	2227.236
0	6359	23850	2227.23
0	6362	23850	2227.23
0	6367	23880	2227.224
0	6370	23880	2227.224
0	6375	23910	2227.218
0	6378	23910	2227.218
0	6383	23940	2227.212
0	6386	23940	2227.212
0	6391	23970	2227.206
0	6394	23970	2227.206
0	6399	24000	2227.2
0	6402	24000	2227.2
0	6407	24030	2227.194
0	6410	24030	2227.194
0	6415	24060	2227.188
0	6418	24060	2227.188
0	6423	24090	2227.182
0	6426	24090	2227.182
0	6431	24120	2227.176
0	6434	24120	2227.176
0	6439	24150	2227.17
0	6442	24150	2227.17
0	6447	24180	2227.164
0	6450	24180	2227.164
0	6455	24210	2227.158
0	6458	24210	2227.158
0	6463	24240	2227.152
0	6466	24240	2227.152
0	6471	24270	2227.146
0	6474	24270	2227.146
0	6479	24300	2227.14
0	6482	24300	2227.14
0	6487	24330	2227.134
0	6490	24330	2227.134
0	6495	24360	2227.128
0	6498	24360	2227.128
0	6503	24390	2227.122
0	6506	24390	2227.122
0	6511	24420	2227.116
0	6514	24420	2227.116
0	6519	24450	2227.11
0	6522	24450	2227.11
0	6527	24480	2227.104
0	6530	24480	2227.104
0	6535	24510	2227.098
0	6538	24510	2227.098
0	6543	24540	2227.092
0	6546	24540	2227.092
0	6551	24570	2227.086
0	6554	24570	2227.086
0	6559	24600	2227.08
0	6562	24600	2227.08
0	6567	24630	2227.074
0	6570	24630	2227.074
0	6575	24660	2227.068
0	6578	24660	2227.068
0	6583	24690	2227.062
0	6586	24690	2227.062
0	6591	24720	2227.056
0	6594	24720	2227.056
0	6599	24750	2227.05
0	6602	24750	2227.05
0	6607	24780	2227.044
0	6610	24780	2227.044
0	6615	24810	2227.038
0	6618	24810	2227.038
0	6623	24840	2227.032
0	6626	24840	2227.032
0	6631	24870	2227.026
0	6634	24870	2227.026
0	6639	24900	2227.02
0	6642	24900	2227.02
0	6647	24930	2227.014
0	6650	24930	2227.014
0	6655	24960	2227.008
0	6658	24960	2227.008
0	6663	24990	2227.002
0	6666	24990	2227.002
0	6671	25020	2226.996
0	6674	25020	2226.996
0	6679	25050	2226.99
0	6682	25050	2226.99
0	6687	25080	2226.984
0	6690	25080	2226.984
0	6695	25110	2226.978
0	6698	25110	2226.978
0	6703	25140	2226.972
0	6706	25140	2226.972
0	6711	25170	2226.966
0	6714	25170	2226.966
0	6719	25200	2226.96
0	6722	25200	2226.96
0	6727	25230	2226.954
0	6730	25230	2226.954
0	6735	25260	2226.948
0	6738	25260	2226.948
0	6743	25290	2226.942
0	6746	25290	2226.942
0	6751	25320	2226.936
0	6754	25320	2226.936
0	6759	25350	2226.93
0	6762	25350	2226.93
0	6767	25380	2226.924
0	6770	25380	2226.924
0	6775	25410	2226.918
0	6778	25410	2226.918
0	6783	25440	2226.912
0	6786	25440	2226.912
0	6791	25470	2226.906
0	6794	25470	2226.906
0	6799	25500	2226.9
0	6802	25500	2226.9
0	6807	25530	2226.894
0	6810	25530	2226.894
0	6815	25560	2226.888
0	6818	25560	2226.888
0	6823	25590	2226.882
0	6826	25590	2226.882
0	6831	25620	2226.876
0	6834	25620	2226.876
0	6839	25650	2226.87
0	6842	25650	2226.87
0	6847	25680	2226.864
0	6850	25680	2226.864
0	6855	25710	2226.858
0	6858	25710	2226.858
0	6863	25740	2226.852
0	6866	25740	2226.852
0	6871	25770	2226.846
0	6874	25770	2226.846
0	6879	25800	2226.84
0	6882	25800	2226.84
0	6887	25830	2226.834
0	6890	25830	2226.834
0	6895	25860	2226.828
0	6898	25860	2226.828
0	6903	25890	2226.822
0	6906	25890	2226.822
0	6911	25920	2226.816
0	6914	25920	2226.816
0	6919	25950	2226.81
0	6922	25950	2226.81
0	6927	25980	2226.804
0	6930	25980	2226.804
0	6935	26010	2226.798
0	6938	26010	2226.798
0	6943	26040	2226.792
0	6946	26040	2226.792
0	6951	26070	2226.786
0	6954	26070	2226.786
0	6959	26100	2226.78
0	6962	26100	2226.78
0	6967	26130	2226.774
0	6970	26130	2226.774
0	6975	26160	2226.768
0	6978	26160	2226.768
0	6983	26190	2226.762
0	6986	26190	2226.762
0	6991	26220	2226.756
0	6994	26220	2226.756
0	6999	26250	2226.75
0	7002	26250	2226.75
0	7007	26280	2226.744
0	7010	26280	2226.744
0	7015	26310	2226.738
0	7018	26310	2226.738
0	7023	26340	2226.732
0	7026	26340	2226.732
0	7031	26370	2226.726
0	7034	26370	2226.726
0	7039	26400	2226.72
0	7042	26400	2226.72
0	7047	26430	2226.714
0	7050	26430	2226.714
0	7055	26460	2226.708
0	7058	26460	2226.708
0	7063	26490	2226.702
0	7066	26490	2226.702
0	7071	26520	2226.696
0	7074	26520	2226.696
0	7079	26550	2226.69
0	7082	26550	2226.69
0	7087	26580	2226.684
0	7090	26580	2226.684
0	7095	26610	2226.678
0	7098	26610	2226.678
0	7103	26640	2226.672
0	7106	26640	2226.672
0	7111	26670	2226.666
0	7114	26670	2226.666
0	7119	26700	2226.66
0	7122	26700	2226.66
0	7127	26730	2226.654
0	7130	26730	2226.654
0	7135	26760	2226.648
0	7138	26760	2226.648
0	7143	26790	2226.642
0	7146	26790	2226.642
0	7151	26820	2226.636
0	7154	26820	2226.636
0	7159	26850	2226.63
0	7162	26850	2226.63
0	7167	26880	2226.624
0	7170	26880	2226.624
0	7175	26910	2226.618
0	7178	26910	2226.618
0	7183	26940	2226.612
0	7186	26940	2226.612
0	7191	26970	2226.606
0	7194	26970	2226.606
0	7199	27000	2226.6
0	7202	27000	2226.6
0	7207	27030	2226.594
0	7210	27030	2226.594
0	7215	27060	2226.588
0	7218	27060	2226.588
0	7223	27090	2226.582
0	7226	27090	2226.582
0	7231	27120	2226.576
0	7234	27120	2226.576
0	7239	27150	2226.57
0	7242	27150	2226.57
0	7247	27180	2226.564
0	7250	27180	2226.564
0	7255	27210	2226.558
0	7258	27210	2226.558
0	7263	27240	2226.552
0	7266	27240	2226.552
0	7271	27270	2226.546
0	7274	27270	2226.546
0	7279	27300	2226.54
0	7282	27300	2226.54
0	7287	27330	2226.534
0	7290	27330	2226.534
0	7295	27360	2226.528
0	7298	27360	2226.528
0	7303	27390	2226.522
0	7306	27390	2226.522
0	7311	27420	2226.516
0	7314	27420	2226.516
0	7319	27450	2226.51
0	7322	27450	2226.51
0	7327	27480	2226.504
0	7330	27480	2226.504
0	7335	27510	2226.498
0	7338	27510	2226.498
0	7343	27540	2226.492
0	7346	27540	2226.492
0	7351	27570	2226.486
0	7354	27570	2226.486
0	7359	27600	2226.48
0	7362	27600	2226.48
0	7367	27630	2226.474
0	7370	27630	2226.474
0	7375	27660	2226.468
0	7378	27660	2226.468
0	7383	27690	2226.462
0	7386	27690	2226.462
0	7391	27720	2226.456
0	7394	27720	2226.456
0	7399	27750	2226.45
0	7402	27750	2226.45
0	7407	27780	2226.444
0	7410	27780	2226.444
0	7415	27810	2226.438
0	7418	27810	2226.438
0	7423	27840	2226.432
0	7426	27840	2226.432
0	7431	27870	2226.426
0	7434	27870	2226.426
0	7439	27900	2226.42
0	7442	27900	2226.42
0	7447	27930	2226.414
0	7450	27930	2226.414
0	7455	27960	2226.408
0	7458	27960	2226.408
0	7463	27990	2226.402
0	7466	27990	2226.402
0	7471	28020	2226.396
0	7474	28020	2226.396
0	7479	28050	2226.39
0	7482	28050	2226.39
0	7487	28080	2226.384
0	7490	28080	2226.384
0	7495	28110	2226.378
0	7498	28110	2226.378
0	7503	28140	2226.372
0	7506	28140	2226.372
0	7511	28170	2226.366
0	7514	28170	2226.366
0	7519	28200	2226.36
0	7522	28200	2226.36
0	7527	28230	2226.354
0	7530	28230	2226.354
0	7535	28260	2226.348
0	7538	28260	2226.348
0	7543	28290	2226.342
0	7546	28290	2226.342
0	7551	28320	2226.336
0	7554	28320	2226.336
0	7559	28350	2226.33
0	7562	28350	2226.33
0	7567	28380	2226.324
0	7570	28380	2226.324
0	7575	28410	2226.318
0	7578	28410	2226.318
0	7583	28440	2226.312
0	7586	28440	2226.312
0	7591	28470	2226.306
0	7594	28470	2226.306
0	7599	28500	2226.3
0	7602	28500	2226.3
0	7607	28530	2226.294
0	7610	28530	2226.294
0	7615	28560	2226.288
0	7618	28560	2226.288
0	7623	28590	2226.282
0	7626	28590	2226.282
0	7631	28620	2226.276
0	7634	28620	2226.276
0	7639	28650	2226.27
0	7642	28650	2226.27
0	7647	28680	2226.264
0	7650	28680	2226.264
0	7655	28710	2226.258
0	7658	28710	2226.258
0	7663	28740	2226.252
0	7666	28740	2226.252
0	7671	28770	2226.246
0	7674	28770	2226.246
0	7679	28800	2226.24
0	7682	28800	2226.24
0	7687	28830	2226.234
0	7690	28830	2226.234
0	7695	28860	2226.228
0	7698	28860	2226.228
0	7703	28890	2226.222
0	7706	28890	2226.222
0	7711	28920	2226.216
0	7714	28920	2226.216
0	7719	28950	2226.21
0	7722	28950	2226.21
0	7727	28980	2226.204
0	7730	28980	2226.204
0	7735	29010	2226.198
0	7738	29010	2226.198
0	7743	29040	2226.192
0	7746	29040	2226.192
0	7751	29070	2226.186
0	7754	29070	2226.186
0	7759	29100	2226.18
0	7762	29100	2226.18
0	7767	29130	2226.174
0	7770	29130	2226.174
0	7775	29160	2226.168
0	7778	29160	2226.168
0	7783	29190	2226.162
0	7786	29190	2226.162
0	7791	29220	2226.156
0	7794	29220	2226.156
0	7799	29250	2226.15
0	7802	29250	2226.15
0	7807	29280	2226.144
0	7810	29280	2226.144
0	7815	29310	2226.138
0	7818	29310	2226.138
0	7823	29340	2226.132
0	7826	29340	2226.132
0	7831	29370	2226.126
0	7834	29370	2226.126
0	7839	29400	2226.12
0	7842	29400	2226.12
0	7847	29430	2226.114
0	7850	29430	2226.114
0	7855	29460	2226.108
0	7858	29460	2226.108
0	7863	29490	2226.102
0	7866	29490	2226.102
0	7871	29520	2226.096
0	7874	29520	2226.096
0	7879	29550	2226.09
0	7882	29550	2226.09
0	7887	29580	2226.084
0	7890	29580	2226.084
0	7895	29610	2226.078
0	7898	29610	2226.078
0	7903	29640	2226.072
0	7906	29640	2226.072
0	7911	29670	2226.066
0	7914	29670	2226.066
0	7919	29700	2226.06
0	7922	29700	2226.06
0	7927	29730	2226.054
0	7930	29730	2226.054
0	7935	29760	2226.048
0	7938	29760	2226.048
0	7943	29790	2226.042
0	7946	29790	2226.042
0	7951	29820	2226.036
0	7954	29820	2226.036
0	7959	29850	2226.03
0	7962	29850	2226.03
0	7967	29880	2226.024
0	7970	29880	2226.024
0	7975	29910	2226.018
0	7978	29910	2226.018
0	7983	29940	2226.012
0	7986	29940	2226.012
0	7991	29970	2226.006
0	7994	29970	2226.006
0	7999	30000	2226
0	8002	30000	2226
0	8007	30030	2225.994
0	8010	30030	2225.994
0	8015	30060	2225.988
0	8018	30060	2225.988
0	8023	30090	2225.982
0	8026	30090	2225.982
0	8031	30120	2225.976
0	8034	30120	2225.976
0	8039	30150	2225.97
0	8042	30150	2225.97
0	8047	30180	2225.964
0	8050	30180	2225.964
0	8055	30210	2225.958
0	8058	30210	2225.958
0	8063	30240	2225.952
0	8066	30240	2225.952
0	8071	30270	2225.946
0	8074	30270	2225.946
0	8079	30300	2225.94
0	8082	30300	2225.94
0	8087	30330	2225.934
0	8090	30330	2225.934
0	8095	30360	2225.928
0	8098	30360	2225.928
0	8103	30390	2225.922
0	8106	30390	2225.922
0	8111	30420	2225.916
0	8114	30420	2225.916
0	8119	30450	2225.91
0	8122	30450	2225.91
0	8127	30480	2225.904
0	8130	30480	2225.904
0	8135	30510	2225.898
0	8138	30510	2225.898
0	8143	30540	2225.892
0	8146	30540	2225.892
0	8151	30570	2225.886
0	8154	30570	2225.886
0	8159	30600	2225.88
0	8162	30600	2225.88
0	8167	30630	2225.874
0	8170	30630	2225.874
0	8175	30660	2225.868
0	8178	30660	2225.868
0	8183	30690	2225.862
0	8186	30690	2225.862
0	8191	30720	2225.856
0	8194	30720	2225.856
0	8199	30750	2225.85
0	8202	30750	2225.85
0	8207	30780	2225.844
0	8210	30780	2225.844
0	8215	30810	2225.838
0	8218	30810	2225.838
0	8223	30840	2225.832
0	8226	30840	2225.832
0	8231	30870	2225.826
0	8234	30870	2225.826
0	8239	30900	2225.82
0	8242	30900	2225.82
0	8247	30930	2225.814
0	8250	30930	2225.814
0	8255	30960	2225.808
0	8258	30960	2225.808
0	8263	30990	2225.802
0	8266	30990	2225.802
0	8271	31020	2225.796
0	8274	31020	2225.796
0	8279	31050	2225.79
0	8282	31050	2225.79
0	8287	31080	2225.784
0	8290	31080	2225.784
0	8295	31110	2225.778
0	8298	31110	2225.778
0	8303	31140	2225.772
0	8306	31140	2225.772
0	8311	31170	2225.766
0	8314	31170	2225.766
0	8319	31200	2225.76
0	8322	31200	2225.76
0	8327	31230	2225.754
0	8330	31230	2225.754
0	8335	31260	2225.748
0	8338	31260	2225.748
0	8343	31290	2225.742
0	8346	31290	2225.742
0	8351	31320	2225.736
0	8354	31320	2225.736
0	8359	31350	2225.73
0	8362	31350	2225.73
0	8367	31380	2225.724
0	8370	31380	2225.724
0	8375	31410	2225.718
0	8378	31410	2225.718
0	8383	31440	2225.712
0	8386	31440	2225.712
0	8391	31470	2225.706
0	8394	31470	2225.706
0	8399	31500	2225.7
0	8402	31500	2225.7
0	8407	31530	2225.694
0	8410	31530	2225.694
0	8415	31560	2225.688
0	8418	31560	2225.688
0	8423	31590	2225.682
0	8426	31590	2225.682
0	8431	31620	2225.676
0	8434	31620	2225.676
0	8439	31650	2225.67
0	8442	31650	2225.67
0	8447	31680	2225.664
0	8450	31680	2225.664
0	8455	31710	2225.658
0	8458	31710	2225.658
0	8463	31740	2225.652
0	8466	31740	2225.652
0	8471	31770	2225.646
0	8474	31770	2225.646
0	8479	31800	2225.64
0	8482	31800	2225.64
0	8487	31830	2225.634
0	8490	31830	2225.634
0	8495	31860	2225.628
0	8498	31860	2225.628
0	8503	31890	2225.622
0	8506	31890	2225.622
0	8511	31920	2225.616
0	8514	31920	2225.616
0	8519	31950	2225.61
0	8522	31950	2225.61
0	8527	31980	2225.604
0	8530	31980	2225.604
0	8535	32010	2225.598
0	8538	32010	2225.598
0	8543	32040	2225.592
0	8546	32040	2225.592
0	8551	32070	2225.586
0	8554	32070	2225.586
0	8559	32100	2225.58
0	8562	32100	2225.58
0	8567	32130	2225.574
0	8570	32130	2225.574
0	8575	32160	2225.568
0	8578	32160	2225.568
0	8583	32190	2225.562
0	8586	32190	2225.562
0	8591	32220	2225.556
0	8594	32220	2225.556
0	8599	32250	2225.55
0	8602	32250	2225.55
0	8607	32280	2225.544
0	8610	32280	2225.544
0	8615	32310	2225.538
0	8618	32310	2225.538
0	8623	32340	2225.532
0	8626	32340	2225.532
0	8631	32370	2225.526
0	8634	32370	2225.526
0	8639	32400	2225.52
0	8642	32400	2225.52
0	8647	32430	2225.514
0	8650	32430	2225.514
0	8655	32460	2225.508
0	8658	32460	2225.508
0	8663	32490	2225.502
0	8666	32490	2225.502
0	8671	32520	2225.496
0	8674	32520	2225.496
0	8679	32550	2225.49
0	8682	32550	2225.49
0	8687	32580	2225.484
0	8690	32580	2225.484
0	8695	32610	2225.478
0	8698	32610	2225.478
0	8703	32640	2225.472
0	8706	32640	2225.472
0	8711	32670	2225.466
0	8714	32670	2225.466
0	8719	32700	2225.46
0	8722	32700	2225.46
0	8727	32730	2225.454
0	8730	32730	2225.454
0	8735	32760	2225.448
0	8738	32760	2225.448
0	8743	32790	2225.442
0	8746	32790	2225.442
0	8751	32820	2225.436
0	8754	32820	2225.436
0	8759	32850	2225.43
0	8762	32850	2225.43
0	8767	32880	2225.424
0	8770	32880	2225.424
0	8775	32910	2225.418
0	8778	32910	2225.418
0	8783	32940	2225.412
0	8786	32940	2225.412
0	8791	32970	2225.406
0	8794	32970	2225.406
0	8799	33000	2225.4
0	8802	33000	2225.4
0	8807	33030	2225.394
0	8810	33030	2225.394
0	8815	33060	2225.388
0	8818	33060	2225.388
0	8823	33090	2225.382
0	8826	33090	2225.382
0	8831	33120	2225.376
0	8834	33120	2225.376
0	8839	33150	2225.37
0	8842	33150	2225.37
0	8847	33180	2225.364
0	8850	33180	2225.364
0	8855	33210	2225.358
0	8858	33210	2225.358
0	8863	33240	2225.352
0	8866	33240	2225.352
0	8871	33270	2225.346
0	8874	33270	2225.346
0	8879	33300	2225.34
0	8882	33300	2225.34
0	8887	33330	2225.334
0	8890	33330	2225.334
0	8895	33360	2225.328
0	8898	33360	2225.328
0	8903	33390	2225.322
0	8906	33390	2225.322
0	8911	33420	2225.316
0	8914	33420	2225.316
0	8919	33450	2225.31
0	8922	33450	2225.31
0	8927	33480	2225.304
0	8930	33480	2225.304
0	8935	33510	2225.298
0	8938	33510	2225.298
0	8943	33540	2225.292
0	8946	33540	2225.292
0	8951	33570	2225.286
0	8954	33570	2225.286
0	8959	33600	2225.28
0	8962	33600	2225.28
0	8967	33630	2225.274
0	8970	33630	2225.274
0	8975	33660	2225.268
0	8978	33660	2225.268
0	8983	33690	2225.262
0	8986	33690	2225.262
0	8991	33720	2225.256
0	8994	33720	2225.256
0	8999	33750	2225.25
0	9002	33750	2225.25
0	9007	33780	2225.244
0	9010	33780	2225.244
0	9015	33810	2225.238
0	9018	33810	2225.238
0	9023	33840	2225.232
0	9026	33840	2225.232
0	9031	33870	2225.226
0	9034	33870	2225.226
0	9039	33900	2225.22
0	9042	33900	2225.22
0	9047	33930	2225.214
0	9050	33930	2225.214
0	9055	33960	2225.208
0	9058	33960	2225.208
0	9063	33990	2225.202
0	9066	33990	2225.202
0	9071	34020	2225.196
0	9074	34020	2225.196
0	9079	34050	2225.19
0	9082	34050	2225.19
0	9087	34080	2225.184
0	9090	34080	2225.184
0	9095	34110	2225.178
0	9098	34110	2225.178
0	9103	34140	2225.172
0	9106	34140	2225.172
0	9111	34170	2225.166
0	9114	34170	2225.166
0	9119	34200	2225.16
0	9122	34200	2225.16
0	9127	34230	2225.154
0	9130	34230	2225.154
0	9135	34260	2225.148
0	9138	34260	2225.148
0	9143	34290	2225.142
0	9146	34290	2225.142
0	9151	34320	2225.136
0	9154	34320	2225.136
0	9159	34350	2225.13
0	9162	34350	2225.13
0	9167	34380	2225.124
0	9170	34380	2225.124
0	9175	34410	2225.118
0	9178	34410	2225.118
0	9183	34440	2225.112
0	9186	34440	2225.112
0	9191	34470	2225.106
0	9194	34470	2225.106
0	9199	34500	2225.1
0	9202	34500	2225.1
0	9207	34530	2225.094
0	9210	34530	2225.094
0	9215	34560	2225.088
0	9218	34560	2225.088
0	9223	34590	2225.082
0	9226	34590	2225.082
0	9231	34620	2225.076
0	9234	34620	2225.076
0	9239	34650	2225.07
0	9242	34650	2225.07
0	9247	34680	2225.064
0	9250	34680	2225.064
0	9255	34710	2225.058
0	9258	34710	2225.058
0	9263	34740	2225.052
0	9266	34740	2225.052
0	9271	34770	2225.046
0	9274	34770	2225.046
0	9279	34800	2225.04
0	9282	34800	2225.04
0	9287	34830	2225.034
0	9290	34830	2225.034
0	9295	34860	2225.028
0	9298	34860	2225.028
0	9303	34890	2225.022
0	9306	34890	2225.022
0	9311	34920	2225.016
0	9314	34920	2225.016
0	9319	34950	2225.01
0	9322	34950	2225.01
0	9327	34980	2225.004
0	9330	34980	2225.004
0	9335	35010	2224.998
0	9338	35010	2224.998
0	9343	35040	2224.992
0	9346	35040	2224.992
0	9351	35070	2224.986
0	9354	35070	2224.986
0	9359	35100	2224.98
0	9362	35100	2224.98
0	9367	35130	2224.974
0	9370	35130	2224.974
0	9375	35160	2224.968
0	9378	35160	2224.968
0	9383	35190	2224.962
0	9386	35190	2224.962
0	9391	35220	2224.956
0	9394	35220	2224.956
0	9399	35250	2224.95
0	9402	35250	2224.95
0	9407	35280	2224.944
0	9410	35280	2224.944
0	9415	35310	2224.938
0	9418	35310	2224.938
0	9423	35340	2224.932
0	9426	35340	2224.932
0	9431	35370	2224.926
0	9434	35370	2224.926
0	9439	35400	2224.92
0	9442	35400	2224.92
0	9447	35430	2224.914
0	9450	35430	2224.914
0	9455	35460	2224.908
0	9458	35460	2224.908
0	9463	35490	2224.902
0	9466	35490	2224.902
0	9471	35520	2224.896
0	9474	35520	2224.896
0	9479	35550	2224.89
0	9482	35550	2224.89
0	9487	35580	2224.884
0	9490	35580	2224.884
0	9495	35610	2224.878
0	9498	35610	2224.878
0	9503	35640	2224.872
0	9506	35640	2224.872
0	9511	35670	2224.866
0	9514	35670	2224.866
0	9519	35700	2224.86
0	9522	35700	2224.86
0	9527	35730	2224.854
0	9530	35730	2224.854
0	9535	35760	2224.848
0	9538	35760	2224.848
0	9543	35790	2224.842
0	9546	35790	2224.842
0	9551	35820	2224.836
0	9554	35820	2224.836
0	9559	35850	2224.83
0	9562	35850	2224.83
0	9567	35880	2224.824
0	9570	35880	2224.824
0	9575	35910	2224.818
0	9578	35910	2224.818
0	9583	35940	2224.812
0	9586	35940	2224.812
0	9591	35970	2224.806
0	9594	35970	2224.806
0	9599	36000	2224.8
0	9602	36000	2224.8
0	9607	36030	2224.794
0	9610	36030	2224.794
0	9615	36060	2224.788
0	9618	36060	2224.788
0	9623	36090	2224.782
0	9626	36090	2224.782
0	9631	36120	2224.776
0	9634	36120	2224.776
0	9639	36150	2224.77
0	9642	36150	2224.77
0	9647	36180	2224.764
0	9650	36180	2224.764
0	9655	36210	2224.758
0	9658	36210	2224.758
0	9663	36240	2224.752
0	9666	36240	2224.752
0	9671	36270	2224.746
0	9674	36270	2224.746
0	9679	36300	2224.74
0	9682	36300	2224.74
0	9687	36330	2224.734
0	9690	36330	2224.734
0	9695	36360	2224.728
0	9698	36360	2224.728
0	9703	36390	2224.722
0	9706	36390	2224.722
0	9711	36420	2224.716
0	9714	36420	2224.716
0	9719	36450	2224.71
0	9722	36450	2224.71
0	9727	36480	2224.704
0	9730	36480	2224.704
0	9735	36510	2224.698
0	9738	36510	2224.698
0	9743	36540	2224.692
0	9746	36540	2224.692
0	9751	36570	2224.686
0	9754	36570	2224.686
0	9759	36600	2224.68
0	9762	36600	2224.68
0	9767	36630	2224.674
0	9770	36630	2224.674
0	9775	36660	2224.668
0	9778	36660	2224.668
0	9783	36690	2224.662
0	9786	36690	2224.662
0	9791	36720	2224.656
0	9794	36720	2224.656
0	9799	36750	2224.65
0	9802	36750	2224.65
0	9807	36780	2224.644
0	9810	36780	2224.644
0	9815	36810	2224.638
0	9818	36810	2224.638
0	9823	36840	2224.632
0	9826	36840	2224.632
0	9831	36870	2224.626
0	9834	36870	2224.626
0	9839	36900	2224.62
0	9842	36900	2224.62
0	9847	36930	2224.614
0	9850	36930	2224.614
0	9855	36960	2224.608
0	9858	36960	2224.608
0	9863	36990	2224.602
0	9866	36990	2224.602
0	9871	37020	2224.596
0	9874	37020	2224.596
0	9879	37050	2224.59
0	9882	37050	2224.59
0	9887	37080	2224.584
0	9890	37080	2224.584
0	9895	37110	2224.578
0	9898	37110	2224.578
0	9903	37140	2224.572
0	9906	37140	2224.572
0	9911	37170	2224.566
0	9914	37170	2224.566
0	9919	37200	2224.56
0	9922	37200	2224.56
0	9927	37230	2224.554
0	9930	37230	2224.554
0	9935	37260	2224.548
0	9938	37260	2224.548
0	9943	37290	2224.542
0	9946	37290	2224.542
0	9951	37320	2224.536
0	9954	37320	2224.536
0	9959	37350	2224.53
0	9962	37350	2224.53
0	9967	37380	2224.524
0	9970	37380	2224.524
0	9975	37410	2224.518
0	9978	37410	2224.518
0	9983	37440	2224.512
0	9986	37440	2224.512
0	9991	37470	2224.506
0	9994	37470	2224.506
0	9999	37500	2224.5
0	10002	37500	2224.5
0	10007	37530	2224.494
0	10010	37530	2224.494
0	10015	37560	2224.488
0	10018	37560	2224.488
0	10023	37590	2224.482
0	10026	37590	2224.482
0	10031	37620	2224.476
0	10034	37620	2224.476
0	10039	37650	2224.47
0	10042	37650	2224.47
0	10047	37680	2224.464
0	10050	37680	2224.464
0	10055	37710	2224.458
0	10058	37710	2224.458
0	10063	37740	2224.452
0	10066	37740	2224.452
0	10071	37770	2224.446
0	10074	37770	2224.446
0	10079	37800	2224.44
0	10082	37800	2224.44
0	10087	37830	2224.434
0	10090	37830	2224.434
0	10095	37860	2224.428
0	10098	37860	2224.428
0	10103	37890	2224.422
0	10106	37890	2224.422
0	10111	37920	2224.416
0	10114	37920	2224.416
0	10119	37950	2224.41
0	10122	37950	2224.41
0	10127	37980	2224.404
0	10130	37980	2224.404
0	10135	38010	2224.398
0	10138	38010	2224.398
0	10143	38040	2224.392
0	10146	38040	2224.392
0	10151	38070	2224.386
0	10154	38070	2224.386
0	10159	38100	2224.38
0	10162	38100	2224.38
0	10167	38130	2224.374
0	10170	38130	2224.374
0	10175	38160	2224.368
0	10178	38160	2224.368
0	10183	38190	2224.362
0	10186	38190	2224.362
0	10191	38220	2224.356
0	10194	38220	2224.356
0	10199	38250	2224.35
0	10202	38250	2224.35
0	10207	38280	2224.344
0	10210	38280	2224.344
0	10215	38310	2224.338
0	10218	38310	2224.338
0	10223	38340	2224.332
0	10226	38340	2224.332
0	10231	38370	2224.326
0	10234	38370	2224.326
0	10239	38400	2224.32
0	10242	38400	2224.32
0	10247	38430	2224.314
0	10250	38430	2224.314
0	10255	38460	2224.308
0	10258	38460	2224.308
0	10263	38490	2224.302
0	10266	38490	2224.302
0	10271	38520	2224.296
0	10274	38520	2224.296
0	10279	38550	2224.29
0	10282	38550	2224.29
0	10287	38580	2224.284
0	10290	38580	2224.284
0	10295	38610	2224.278
0	10298	38610	2224.278
0	10303	38640	2224.272
0	10306	38640	2224.272
0	10311	38670	2224.266
0	10314	38670	2224.266
0	10319	38700	2224.26
0	10322	38700	2224.26
0	10327	38730	2224.254
0	10330	38730	2224.254
0	10335	38760	2224.248
0	10338	38760	2224.248
0	10343	38790	2224.242
0	10346	38790	2224.242
0	10351	38820	2224.236
0	10354	38820	2224.236
0	10359	38850	2224.23
0	10362	38850	2224.23
0	10367	38880	2224.224
0	10370	38880	2224.224
0	10375	38910	2224.218
0	10378	38910	2224.218
0	10383	38940	2224.212
0	10386	38940	2224.212
0	10391	38970	2224.206
0	10394	38970	2224.206
0	10399	39000	2224.2
0	10402	39000	2224.2
0	10407	39030	2224.194
0	10410	39030	2224.194
0	10415	39060	2224.188
0	10418	39060	2224.188
0	10423	39090	2224.182
0	10426	39090	2224.182
0	10431	39120	2224.176
0	10434	39120	2224.176
0	10439	39150	2224.17
0	10442	39150	2224.17
0	10447	39180	2224.164
0	10450	39180	2224.164
0	10455	39210	2224.158
0	10458	39210	2224.158
0	10463	39240	2224.152
0	10466	39240	2224.152
0	10471	39270	2224.146
0	10474	39270	2224.146
0	10479	39300	2224.14
0	10482	39300	2224.14
0	10487	39330	2224.134
0	10490	39330	2224.134
0	10495	39360	2224.128
0	10498	39360	2224.128
0	10503	39390	2224.122
0	10506	39390	2224.122
0	10511	39420	2224.116
0	10514	39420	2224.116
0	10519	39450	2224.11
0	10522	39450	2224.11
0	10527	39480	2224.104
0	10530	39480	2224.104
0	10535	39510	2224.098
0	10538	39510	2224.098
0	10543	39540	2224.092
0	10546	39540	2224.092
0	10551	39570	2224.086
0	10554	39570	2224.086
0	10559	39600	2224.08
0	10562	39600	2224.08
0	10567	39630	2224.074
0	10570	39630	2224.074
0	10575	39660	2224.068
0	10578	39660	2224.068
0	10583	39690	2224.062
0	10586	39690	2224.062
0	10591	39720	2224.056
0	10594	39720	2224.056
0	10599	39750	2224.05
0	10602	39750	2224.05
0	10607	39780	2224.044
0	10610	39780	2224.044
0	10615	39810	2224.038
0	10618	39810	2224.038
0	10623	39840	2224.032
0	10626	39840	2224.032
0	10631	39870	2224.026
0	10634	39870	2224.026
0	10639	39900	2224.02
0	10642	39900	2224.02
0	10647	39930	2224.014
0	10650	39930	2224.014
0	10655	39960	2224.008
0	10658	39960	2224.008
0	10663	39990	2224.002
0	10666	39990	2224.002
0	10671	40020	2223.996
0	10674	40020	2223.996
0	10679	40050	2223.99
0	10682	40050	2223.99
0	10687	40080	2223.984
0	10690	40080	2223.984
0	10695	40110	2223.978
0	10698	40110	2223.978
0	10703	40140	2223.972
0	10706	40140	2223.972
0	10711	40170	2223.966
0	10714	40170	2223.966
0	10719	40200	2223.96
0	10722	40200	2223.96
0	10727	40230	2223.954
0	10730	40230	2223.954
0	10735	40260	2223.948
0	10738	40260	2223.948
0	10743	40290	2223.942
0	10746	40290	2223.942
0	10751	40320	2223.936
0	10754	40320	2223.936
0	10759	40350	2223.93
0	10762	40350	2223.93
0	10767	40380	2223.924
0	10770	40380	2223.924
0	10775	40410	2223.918
0	10778	40410	2223.918
0	10783	40440	2223.912
0	10786	40440	2223.912
0	10791	40470	2223.906
0	10794	40470	2223.906
0	10799	40500	2223.9
0	10802	40500	2223.9
0	10807	40530	2223.894
0	10810	40530	2223.894
0	10815	40560	2223.888
0	10818	40560	2223.888
0	10823	40590	2223.882
0	10826	40590	2223.882
0	10831	40620	2223.876
0	10834	40620	2223.876
0	10839	40650	2223.87
0	10842	40650	2223.87
0	10847	40680	2223.864
0	10850	40680	2223.864
0	10855	40710	2223.858
0	10858	40710	2223.858
0	10863	40740	2223.852
0	10866	40740	2223.852
0	10871	40770	2223.846
0	10874	40770	2223.846
0	10879	40800	2223.84
0	10882	40800	2223.84
0	10887	40830	2223.834
0	10890	40830	2223.834
0	10895	40860	2223.828
0	10898	40860	2223.828
0	10903	40890	2223.822
0	10906	40890	2223.822
0	10911	40920	2223.816
0	10914	40920	2223.816
0	10919	40950	2223.81
0	10922	40950	2223.81
0	10927	40980	2223.804
0	10930	40980	2223.804
0	10935	41010	2223.798
0	10938	41010	2223.798
0	10943	41040	2223.792
0	10946	41040	2223.792
0	10951	41070	2223.786
0	10954	41070	2223.786
0	10959	41100	2223.78
0	10962	41100	2223.78
0	10967	41130	2223.774
0	10970	41130	2223.774
0	10975	41160	2223.768
0	10978	41160	2223.768
0	10983	41190	2223.762
0	10986	41190	2223.762
0	10991	41220	2223.756
0	10994	41220	2223.756
0	10999	41250	2223.75
0	11002	41250	2223.75
0	11007	41280	2223.744
0	11010	41280	2223.744
0	11015	41310	2223.738
0	11018	41310	2223.738
0	11023	41340	2223.732
0	11026	41340	2223.732
0	11031	41370	2223.726
0	11034	41370	2223.726
0	11039	41400	2223.72
0	11042	41400	2223.72
0	11047	41430	2223.714
0	11050	41430	2223.714
0	11055	41460	2223.708
0	11058	41460	2223.708
0	11063	41490	2223.702
0	11066	41490	2223.702
0	11071	41520	2223.696
0	11074	41520	2223.696
0	11079	41550	2223.69
0	11082	41550	2223.69
0	11087	41580	2223.684
0	11090	41580	2223.684
0	11095	41610	2223.678
0	11098	41610	2223.678
0	11103	41640	2223.672
0	11106	41640	2223.672
0	11111	41670	2223.666
0	11114	41670	2223.666
0	11119	41700	2223.66
0	11122	41700	2223.66
0	11127	41730	2223.654
0	11130	41730	2223.654
0	11135	41760	2223.648
0	11138	41760	2223.648
0	11143	41790	2223.642
0	11146	41790	2223.642
0	11151	41820	2223.636
0	11154	41820	2223.636
0	11159	41850	2223.63
0	11162	41850	2223.63
0	11167	41880	2223.624
0	11170	41880	2223.624
0	11175	41910	2223.618
0	11178	41910	2223.618
0	11183	41940	2223.612
0	11186	41940	2223.612
0	11191	41970	2223.606
0	11194	41970	2223.606
0	11199	42000	2223.6
0	11202	42000	2223.6
0	11207	42030	2223.594
0	11210	42030	2223.594
0	11215	42060	2223.588
0	11218	42060	2223.588
0	11223	42090	2223.582
0	11226	42090	2223.582
0	11231	42120	2223.576
0	11234	42120	2223.576
0	11239	42150	2223.57
0	11242	42150	2223.57
0	11247	42180	2223.564
0	11250	42180	2223.564
0	11255	42210	2223.558
0	11258	42210	2223.558
0	11263	42240	2223.552
0	11266	42240	2223.552
0	11271	42270	2223.546
0	11274	42270	2223.546
0	11279	42300	2223.54
0	11282	42300	2223.54
0	11287	42330	2223.534
0	11290	42330	2223.534
0	11295	42360	2223.528
0	11298	42360	2223.528
0	11303	42390	2223.522
0	11306	42390	2223.522
0	11311	42420	2223.516
0	11314	42420	2223.516
0	11319	42450	2223.51
0	11322	42450	2223.51
0	11327	42480	2223.504
0	11330	42480	2223.504
0	11335	42510	2223.498
0	11338	42510	2223.498
0	11343	42540	2223.492
0	11346	42540	2223.492
0	11351	42570	2223.486
0	11354	42570	2223.486
0	11359	42600	2223.48
0	11362	42600	2223.48
0	11367	42630	2223.474
0	11370	42630	2223.474
0	11375	42660	2223.468
0	11378	42660	2223.468
0	11383	42690	2223.462
0	11386	42690	2223.462
0	11391	42720	2223.456
0	11394	42720	2223.456
0	11399	42750	2223.45
0	11402	42750	2223.45
0	11407	42780	2223.444
0	11410	42780	2223.444
0	11415	42810	2223.438
0	11418	42810	2223.438
0	11423	42840	2223.432
0	11426	42840	2223.432
0	11431	42870	2223.426
0	11434	42870	2223.426
0	11439	42900	2223.42
0	11442	42900	2223.42
0	11447	42930	2223.414
0	11450	42930	2223.414
0	11455	42960	2223.408
0	11458	42960	2223.408
0	11463	42990	2223.402
0	11466	42990	2223.402
0	11471	43020	2223.396
0	11474	43020	2223.396
0	11479	43050	2223.39
0	11482	43050	2223.39
0	11487	43080	2223.384
0	11490	43080	2223.384
0	11495	43110	2223.378
0	11498	43110	2223.378
0	11503	43140	2223.372
0	11506	43140	2223.372
0	11511	43170	2223.366
0	11514	43170	2223.366
0	11519	43200	2223.36
0	11522	43200	2223.36
0	11527	43230	2223.354
0	11530	43230	2223.354
0	11535	43260	2223.348
0	11538	43260	2223.348
0	11543	43290	2223.342
0	11546	43290	2223.342
0	11551	43320	2223.336
0	11554	43320	2223.336
0	11559	43350	2223.33
0	11562	43350	2223.33
0	11567	43380	2223.324
0	11570	43380	2223.324
0	11575	43410	2223.318
0	11578	43410	2223.318
0	11583	43440	2223.312
0	11586	43440	2223.312
0	11591	43470	2223.306
0	11594	43470	2223.306
0	11599	43500	2223.3
0	11602	43500	2223.3
0	11607	43530	2223.294
0	11610	43530	2223.294
0	11615	43560	2223.288
0	11618	43560	2223.288
0	11623	43590	2223.282
0	11626	43590	2223.282
0	11631	43620	2223.276
0	11634	43620	2223.276
0	11639	43650	2223.27
0	11642	43650	2223.27
0	11647	43680	2223.264
0	11650	43680	2223.264
0	11655	43710	2223.258
0	11658	43710	2223.258
0	11663	43740	2223.252
0	11666	43740	2223.252
0	11671	43770	2223.246
0	11674	43770	2223.246
0	11679	43800	2223.24
0	11682	43800	2223.24
0	11687	43830	2223.234
0	11690	43830	2223.234
0	11695	43860	2223.228
0	11698	43860	2223.228
0	11703	43890	2223.222
0	11706	43890	2223.222
0	11711	43920	2223.216
0	11714	43920	2223.216
0	11719	43950	2223.21
0	11722	43950	2223.21
0	11727	43980	2223.204
0	11730	43980	2223.204
0	11735	44010	2223.198
0	11738	44010	2223.198
0	11743	44040	2223.192
0	11746	44040	2223.192
0	11751	44070	2223.186
0	11754	44070	2223.186
0	11759	44100	2223.18
0	11762	44100	2223.18
0	11767	44130	2223.174
0	11770	44130	2223.174
0	11775	44160	2223.168
0	11778	44160	2223.168
0	11783	44190	2223.162
0	11786	44190	2223.162
0	11791	44220	2223.156
0	11794	44220	2223.156
0	11799	44250	2223.15
0	11802	44250	2223.15
0	11807	44280	2223.144
0	11810	44280	2223.144
0	11815	44310	2223.138
0	11818	44310	2223.138
0	11823	44340	2223.132
0	11826	44340	2223.132
0	11831	44370	2223.126
0	11834	44370	2223.126
0	11839	44400	2223.12
0	11842	44400	2223.12
0	11847	44430	2223.114
0	11850	44430	2223.114
0	11855	44460	2223.108
0	11858	44460	2223.108
0	11863	44490	2223.102
0	11866	44490	2223.102
0	11871	44520	2223.096
0	11874	44520	2223.096
0	11879	44550	2223.09
0	11882	44550	2223.09
0	11887	44580	2223.084
0	11890	44580	2223.084
0	11895	44610	2223.078
0	11898	44610	2223.078
0	11903	44640	2223.072
0	11906	44640	2223.072
0	11911	44670	2223.066
0	11914	44670	2223.066
0	11919	44700	2223.06
0	11922	44700	2223.06
0	11927	44730	2223.054
0	11930	44730	2223.054
0	11935	44760	2223.048
0	11938	44760	2223.048
0	11943	44790	2223.042
0	11946	44790	2223.042
0	11951	44820	2223.036
0	11954	44820	2223.036
0	11959	44850	2223.03
0	11962	44850	2223.03
0	11967	44880	2223.024
0	11970	44880	2223.024
0	11975	44910	2223.018
0	11978	44910	2223.018
0	11983	44940	2223.012
0	11986	44940	2223.012
0	11991	44970	2223.006
0	11994	44970	2223.006
0	11999	45000	2223
0	12002	45000	2223
0	12007	45030	2222.994
0	12010	45030	2222.994
0	12015	45060	2222.988
0	12018	45060	2222.988
0	12023	45090	2222.982
0	12026	45090	2222.982
0	12031	45120	2222.976
0	12034	45120	2222.976
0	12039	45150	2222.97
0	12042	45150	2222.97
0	12047	45180	2222.964
0	12050	45180	2222.964
0	12055	45210	2222.958
0	12058	45210	2222.958
0	12063	45240	2222.952
0	12066	45240	2222.952
0	12071	45270	2222.946
0	12074	45270	2222.946
0	12079	45300	2222.94
0	12082	45300	2222.94
0	12087	45330	2222.934
0	12090	45330	2222.934
0	12095	45360	2222.928
0	12098	45360	2222.928
0	12103	45390	2222.922
0	12106	45390	2222.922
0	12111	45420	2222.916
0	12114	45420	2222.916
0	12119	45450	2222.91
0	12122	45450	2222.91
0	12127	45480	2222.904
0	12130	45480	2222.904
0	12135	45510	2222.898
0	12138	45510	2222.898
0	12143	45540	2222.892
0	12146	45540	2222.892
0	12151	45570	2222.886
0	12154	45570	2222.886
0	12159	45600	2222.88
0	12162	45600	2222.88
0	12167	45630	2222.874
0	12170	45630	2222.874
0	12175	45660	2222.868
0	12178	45660	2222.868
0	12183	45690	2222.862
0	12186	45690	2222.862
0	12191	45720	2222.856
0	12194	45720	2222.856
0	12199	45750	2222.85
0	12202	45750	2222.85
0	12207	45780	2222.844
0	12210	45780	2222.844
0	12215	45810	2222.838
0	12218	45810	2222.838
0	12223	45840	2222.832
0	12226	45840	2222.832
0	12231	45870	2222.826
0	12234	45870	2222.826
0	12239	45900	2222.82
0	12242	45900	2222.82
0	12247	45930	2222.814
0	12250	45930	2222.814
0	12255	45960	2222.808
0	12258	45960	2222.808
0	12263	45990	2222.802
0	12266	45990	2222.802
0	12271	46020	2222.796
0	12274	46020	2222.796
0	12279	46050	2222.79
0	12282	46050	2222.79
0	12287	46080	2222.784
0	12290	46080	2222.784
0	12295	46110	2222.778
0	12298	46110	2222.778
0	12303	46140	2222.772
0	12306	46140	2222.772
0	12311	46170	2222.766
0	12314	46170	2222.766
0	12319	46200	2222.76
0	12322	46200	2222.76
0	12327	46230	2222.754
0	12330	46230	2222.754
0	12335	46260	2222.748
0	12338	46260	2222.748
0	12343	46290	2222.742
0	12346	46290	2222.742
0	12351	46320	2222.736
0	12354	46320	2222.736
0	12359	46350	2222.73
0	12362	46350	2222.73
0	12367	46380	2222.724
0	12370	46380	2222.724
0	12375	46410	2222.718
0	12378	46410	2222.718
0	12383	46440	2222.712
0	12386	46440	2222.712
0	12391	46470	2222.706
0	12394	46470	2222.706
0	12399	46500	2222.7
0	12402	46500	2222.7
0	12407	46530	2222.694
0	12410	46530	2222.694
0	12415	46560	2222.688
0	12418	46560	2222.688
0	12423	46590	2222.682
0	12426	46590	2222.682
0	12431	46620	2222.676
0	12434	46620	2222.676
0	12439	46650	2222.67
0	12442	46650	2222.67
0	12447	46680	2222.664
0	12450	46680	2222.664
0	12455	46710	2222.658
0	12458	46710	2222.658
0	12463	46740	2222.652
0	12466	46740	2222.652
0	12471	46770	2222.646
0	12474	46770	2222.646
0	12479	46800	2222.64
0	12482	46800	2222.64
0	12487	46830	2222.634
0	12490	46830	2222.634
0	12495	46860	2222.628
0	12498	46860	2222.628
0	12503	46890	2222.622
0	12506	46890	2222.622
0	12511	46920	2222.616
0	12514	46920	2222.616
0	12519	46950	2222.61
0	12522	46950	2222.61
0	12527	46980	2222.604
0	12530	46980	2222.604
0	12535	47010	2222.598
0	12538	47010	2222.598
0	12543	47040	2222.592
0	12546	47040	2222.592
0	12551	47070	2222.586
0	12554	47070	2222.586
0	12559	47100	2222.58
0	12562	47100	2222.58
0	12567	47130	2222.574
0	12570	47130	2222.574
0	12575	47160	2222.568
0	12578	47160	2222.568
0	12583	47190	2222.562
0	12586	47190	2222.562
0	12591	47220	2222.556
0	12594	47220	2222.556
0	12599	47250	2222.55
0	12602	47250	2222.55
0	12607	47280	2222.544
0	12610	47280	2222.544
0	12615	47310	2222.538
0	12618	47310	2222.538
0	12623	47340	2222.532
0	12626	47340	2222.532
0	12631	47370	2222.526
0	12634	47370	2222.526
0	12639	47400	2222.52
0	12642	47400	2222.52
0	12647	47430	2222.514
0	12650	47430	2222.514
0	12655	47460	2222.508
0	12658	47460	2222.508
0	12663	47490	2222.502
0	12666	47490	2222.502
0	12671	47520	2222.496
0	12674	47520	2222.496
0	12679	47550	2222.49
0	12682	47550	2222.49
0	12687	47580	2222.484
0	12690	47580	2222.484
0	12695	47610	2222.478
0	12698	47610	2222.478
0	12703	47640	2222.472
0	12706	47640	2222.472
0	12711	47670	2222.466
0	12714	47670	2222.466
0	12719	47700	2222.46
0	12722	47700	2222.46
0	12727	47730	2222.454
0	12730	47730	2222.454
0	12735	47760	2222.448
0	12738	47760	2222.448
0	12743	47790	2222.442
0	12746	47790	2222.442
0	12751	47820	2222.436
0	12754	47820	2222.436
0	12759	47850	2222.43
0	12762	47850	2222.43
0	12767	47880	2222.424
0	12770	47880	2222.424
0	12775	47910	2222.418
0	12778	47910	2222.418
0	12783	47940	2222.412
0	12786	47940	2222.412
0	12791	47970	2222.406
0	12794	47970	2222.406
0	12799	48000	2222.4
0	12802	48000	2222.4
0	12807	48030	2222.394
0	12810	48030	2222.394
0	12815	48060	2222.388
0	12818	48060	2222.388
0	12823	48090	2222.382
0	12826	48090	2222.382
0	12831	48120	2222.376
0	12834	48120	2222.376
0	12839	48150	2222.37
0	12842	48150	2222.37
0	12847	48180	2222.364
0	12850	48180	2222.364
0	12855	48210	2222.358
0	12858	48210	2222.358
0	12863	48240	2222.352
0	12866	48240	2222.352
0	12871	48270	2222.346
0	12874	48270	2222.346
0	12879	48300	2222.34
0	12882	48300	2222.34
0	12887	48330	2222.334
0	12890	48330	2222.334
0	12895	48360	2222.328
0	12898	48360	2222.328
0	12903	48390	2222.322
0	12906	48390	2222.322
0	12911	48420	2222.316
0	12914	48420	2222.316
0	12919	48450	2222.31
0	12922	48450	2222.31
0	12927	48480	2222.304
0	12930	48480	2222.304
0	12935	48510	2222.298
0	12938	48510	2222.298
0	12943	48540	2222.292
0	12946	48540	2222.292
0	12951	48570	2222.286
0	12954	48570	2222.286
0	12959	48600	2222.28
0	12962	48600	2222.28
0	12967	48630	2222.274
0	12970	48630	2222.274
0	12975	48660	2222.268
0	12978	48660	2222.268
0	12983	48690	2222.262
0	12986	48690	2222.262
0	12991	48720	2222.256
0	12994	48720	2222.256
0	12999	48750	2222.25
0	13002	48750	2222.25
0	13007	48780	2222.244
0	13010	48780	2222.244
0	13015	48810	2222.238
0	13018	48810	2222.238
0	13023	48840	2222.232
0	13026	48840	2222.232
0	13031	48870	2222.226
0	13034	48870	2222.226
0	13039	48900	2222.22
0	13042	48900	2222.22
0	13047	48930	2222.214
0	13050	48930	2222.214
0	13055	48960	2222.208
0	13058	48960	2222.208
0	13063	48990	2222.202
0	13066	48990	2222.202
0	13071	49020	2222.196
0	13074	49020	2222.196
0	13079	49050	2222.19
0	13082	49050	2222.19
0	13087	49080	2222.184
0	13090	49080	2222.184
0	13095	49110	2222.178
0	13098	49110	2222.178
0	13103	49140	2222.172
0	13106	49140	2222.172
0	13111	49170	2222.166
0	13114	49170	2222.166
0	13119	49200	2222.16
0	13122	49200	2222.16
0	13127	49230	2222.154
0	13130	49230	2222.154
0	13135	49260	2222.148
0	13138	49260	2222.148
0	13143	49290	2222.142
0	13146	49290	2222.142
0	13151	49320	2222.136
0	13154	49320	2222.136
0	13159	49350	2222.13
0	13162	49350	2222.13
0	13167	49380	2222.124
0	13170	49380	2222.124
0	13175	49410	2222.118
0	13178	49410	2222.118
0	13183	49440	2222.112
0	13186	49440	2222.112
0	13191	49470	2222.106
0	13194	49470	2222.106
0	13199	49500	2222.1
0	13202	49500	2222.1
0	13207	49530	2222.094
0	13210	49530	2222.094
0	13215	49560	2222.088
0	13218	49560	2222.088
0	13223	49590	2222.082
0	13226	49590	2222.082
0	13231	49620	2222.076
0	13234	49620	2222.076
0	13239	49650	2222.07
0	13242	49650	2222.07
0	13247	49680	2222.064
0	13250	49680	2222.064
0	13255	49710	2222.058
0	13258	49710	2222.058
0	13263	49740	2222.052
0	13266	49740	2222.052
0	13271	49770	2222.046
0	13274	49770	2222.046
0	13279	49800	2222.04
0	13282	49800	2222.04
0	13287	49830	2222.034
0	13290	49830	2222.034
0	13295	49860	2222.028
0	13298	49860	2222.028
0	13303	49890	2222.022
0	13306	49890	2222.022
0	13311	49920	2222.016
0	13314	49920	2222.016
0	13319	49950	2222.01
0	13322	49950	2222.01
0	13327	49980	2222.004
0	13330	49980	2222.004
0	13335	50010	2221.998
0	13338	50010	2221.998
0	13343	50040	2221.992
0	13346	50040	2221.992
0	13351	50070	2221.986
0	13354	50070	2221.986
0	13359	50100	2221.98
0	13362	50100	2221.98
0	13367	50130	2221.974
0	13370	50130	2221.974
0	13375	50160	2221.968
0	13378	50160	2221.968
0	13383	50190	2221.962
0	13386	50190	2221.962
0	13391	50220	2221.956
0	13394	50220	2221.956
0	13399	50250	2221.95
0	13402	50250	2221.95
0	13407	50280	2221.944
0	13410	50280	2221.944
0	13415	50310	2221.938
0	13418	50310	2221.938
0	13423	50340	2221.932
0	13426	50340	2221.932
0	13431	50370	2221.926
0	13434	50370	2221.926
0	13439	50400	2221.92
0	13442	50400	2221.92
0	13447	50430	2221.914
0	13450	50430	2221.914
0	13455	50460	2221.908
0	13458	50460	2221.908
0	13463	50490	2221.902
0	13466	50490	2221.902
0	13471	50520	2221.896
0	13474	50520	2221.896
0	13479	50550	2221.89
0	13482	50550	2221.89
0	13487	50580	2221.884
0	13490	50580	2221.884
0	13495	50610	2221.878
0	13498	50610	2221.878
0	13503	50640	2221.872
0	13506	50640	2221.872
0	13511	50670	2221.866
0	13514	50670	2221.866
0	13519	50700	2221.86
0	13522	50700	2221.86
0	13527	50730	2221.854
0	13530	50730	2221.854
0	13535	50760	2221.848
0	13538	50760	2221.848
0	13543	50790	2221.842
0	13546	50790	2221.842
0	13551	50820	2221.836
0	13554	50820	2221.836
0	13559	50850	2221.83
0	13562	50850	2221.83
0	13567	50880	2221.824
0	13570	50880	2221.824
0	13575	50910	2221.818
0	13578	50910	2221.818
0	13583	50940	2221.812
0	13586	50940	2221.812
0	13591	50970	2221.806
0	13594	50970	2221.806
0	13599	51000	2221.8
0	13602	51000	2221.8
0	13607	51030	2221.794
0	13610	51030	2221.794
0	13615	51060	2221.788
0	13618	51060	2221.788
0	13623	51090	2221.782
0	13626	51090	2221.782
0	13631	51120	2221.776
0	13634	51120	2221.776
0	13639	51150	2221.77
0	13642	51150	2221.77
0	13647	51180	2221.764
0	13650	51180	2221.764
0	13655	51210	2221.758
0	13658	51210	2221.758
0	13663	51240	2221.752
0	13666	51240	2221.752
0	13671	51270	2221.746
0	13674	51270	2221.746
0	13679	51300	2221.74
0	13682	51300	2221.74
0	13687	51330	2221.734
0	13690	51330	2221.734
0	13695	51360	2221.728
0	13698	51360	2221.728
0	13703	51390	2221.722
0	13706	51390	2221.722
0	13711	51420	2221.716
0	13714	51420	2221.716
0	13719	51450	2221.71
0	13722	51450	2221.71
0	13727	51480	2221.704
0	13730	51480	2221.704
0	13735	51510	2221.698
0	13738	51510	2221.698
0	13743	51540	2221.692
0	13746	51540	2221.692
0	13751	51570	2221.686
0	13754	51570	2221.686
0	13759	51600	2221.68
0	13762	51600	2221.68
0	13767	51630	2221.674
0	13770	51630	2221.674
0	13775	51660	2221.668
0	13778	51660	2221.668
0	13783	51690	2221.662
0	13786	51690	2221.662
0	13791	51720	2221.656
0	13794	51720	2221.656
0	13799	51750	2221.65
0	13802	51750	2221.65
0	13807	51780	2221.644
0	13810	51780	2221.644
0	13815	51810	2221.638
0	13818	51810	2221.638
0	13823	51840	2221.632
0	13826	51840	2221.632
0	13831	51870	2221.626
0	13834	51870	2221.626
0	13839	51900	2221.62
0	13842	51900	2221.62
0	13847	51930	2221.614
0	13850	51930	2221.614
0	13855	51960	2221.608
0	13858	51960	2221.608
0	13863	51990	2221.602
0	13866	51990	2221.602
0	13871	52020	2221.596
0	13874	52020	2221.596
0	13879	52050	2221.59
0	13882	52050	2221.59
0	13887	52080	2221.584
0	13890	52080	2221.584
0	13895	52110	2221.578
0	13898	52110	2221.578
0	13903	52140	2221.572
0	13906	52140	2221.572
0	13911	52170	2221.566
0	13914	52170	2221.566
0	13919	52200	2221.56
0	13922	52200	2221.56
0	13927	52230	2221.554
0	13930	52230	2221.554
0	13935	52260	2221.548
0	13938	52260	2221.548
0	13943	52290	2221.542
0	13946	52290	2221.542
0	13951	52320	2221.536
0	13954	52320	2221.536
0	13959	52350	2221.53
0	13962	52350	2221.53
0	13967	52380	2221.524
0	13970	52380	2221.524
0	13975	52410	2221.518
0	13978	52410	2221.518
0	13983	52440	2221.512
0	13986	52440	2221.512
0	13991	52470	2221.506
0	13994	52470	2221.506
0	13999	52500	2221.5
0	14002	52500	2221.5
0	14007	52530	2221.494
0	14010	52530	2221.494
0	14015	52560	2221.488
0	14018	52560	2221.488
0	14023	52590	2221.482
0	14026	52590	2221.482
0	14031	52620	2221.476
0	14034	52620	2221.476
0	14039	52650	2221.47
0	14042	52650	2221.47
0	14047	52680	2221.464
0	14050	52680	2221.464
0	14055	52710	2221.458
0	14058	52710	2221.458
0	14063	52740	2221.452
0	14066	52740	2221.452
0	14071	52770	2221.446
0	14074	52770	2221.446
0	14079	52800	2221.44
0	14082	52800	2221.44
0	14087	52830	2221.434
0	14090	52830	2221.434
0	14095	52860	2221.428
0	14098	52860	2221.428
0	14103	52890	2221.422
0	14106	52890	2221.422
0	14111	52920	2221.416
0	14114	52920	2221.416
0	14119	52950	2221.41
0	14122	52950	2221.41
0	14127	52980	2221.404
0	14130	52980	2221.404
0	14135	53010	2221.398
0	14138	53010	2221.398
0	14143	53040	2221.392
0	14146	53040	2221.392
0	14151	53070	2221.386
0	14154	53070	2221.386
0	14159	53100	2221.38
0	14162	53100	2221.38
0	14167	53130	2221.374
0	14170	53130	2221.374
0	14175	53160	2221.368
0	14178	53160	2221.368
0	14183	53190	2221.362
0	14186	53190	2221.362
0	14191	53220	2221.356
0	14194	53220	2221.356
0	14199	53250	2221.35
0	14202	53250	2221.35
0	14207	53280	2221.344
0	14210	53280	2221.344
0	14215	53310	2221.338
0	14218	53310	2221.338
0	14223	53340	2221.332
0	14226	53340	2221.332
0	14231	53370	2221.326
0	14234	53370	2221.326
0	14239	53400	2221.32
0	14242	53400	2221.32
0	14247	53430	2221.314
0	14250	53430	2221.314
0	14255	53460	2221.308
0	14258	53460	2221.308
0	14263	53490	2221.302
0	14266	53490	2221.302
0	14271	53520	2221.296
0	14274	53520	2221.296
0	14279	53550	2221.29
0	14282	53550	2221.29
0	14287	53580	2221.284
0	14290	53580	2221.284
0	14295	53610	2221.278
0	14298	53610	2221.278
0	14303	53640	2221.272
0	14306	53640	2221.272
0	14311	53670	2221.266
0	14314	53670	2221.266
0	14319	53700	2221.26
0	14322	53700	2221.26
0	14327	53730	2221.254
0	14330	53730	2221.254
0	14335	53760	2221.248
0	14338	53760	2221.248
0	14343	53790	2221.242
0	14346	53790	2221.242
0	14351	53820	2221.236
0	14354	53820	2221.236
0	14359	53850	2221.23
0	14362	53850	2221.23
0	14367	53880	2221.224
0	14370	53880	2221.224
0	14375	53910	2221.218
0	14378	53910	2221.218
0	14383	53940	2221.212
0	14386	53940	2221.212
0	14391	53970	2221.206
0	14394	53970	2221.206
0	14399	54000	2221.2
0	14402	54000	2221.2
0	14407	54030	2221.194
0	14410	54030	2221.194
0	14415	54060	2221.188
0	14418	54060	2221.188
0	14423	54090	2221.182
0	14426	54090	2221.182
0	14431	54120	2221.176
0	14434	54120	2221.176
0	14439	54150	2221.17
0	14442	54150	2221.17
0	14447	54180	2221.164
0	14450	54180	2221.164
0	14455	54210	2221.158
0	14458	54210	2221.158
0	14463	54240	2221.152
0	14466	54240	2221.152
0	14471	54270	2221.146
0	14474	54270	2221.146
0	14479	54300	2221.14
0	14482	54300	2221.14
0	14487	54330	2221.134
0	14490	54330	2221.134
0	14495	54360	2221.128
0	14498	54360	2221.128
0	14503	54390	2221.122
0	14506	54390	2221.122
0	14511	54420	2221.116
0	14514	54420	2221.116
0	14519	54450	2221.11
0	14522	54450	2221.11
0	14527	54480	2221.104
0	14530	54480	2221.104
0	14535	54510	2221.098
0	14538	54510	2221.098
0	14543	54540	2221.092
[...]
3	13124	49228.5	0.0243
3	13129	49230	0.0243
3	13129	49230	0.0002
3	13132	49258.5	0.0002
3	13132	49258.5	0.0243
3	13137	49260	0.0243
3	13137	49260	0.0002
3	13140	49288.5	0.0002
3	13140	49288.5	0.0243
3	13145	49290	0.0243
3	13145	49290	0.0002
3	13148	49318.5	0.0002
3	13148	49318.5	0.0243
3	13153	49320	0.0243
3	13153	49320	0.0002
3	13156	49348.5	0.0002
3	13156	49348.5	0.0243
3	13161	49350	0.0243
3	13161	49350	0.0002
3	13164	49378.5	0.0002
3	13164	49378.5	0.0243
3	13169	49380	0.0243
3	13169	49380	0.0002
3	13172	49408.5	0.0002
3	13172	49408.5	0.0243
3	13177	49410	0.0243
3	13177	49410	0.0002
3	13180	49438.5	0.0002
3	13180	49438.5	0.0243
3	13185	49440	0.0243
3	13185	49440	0.0002
3	13188	49468.5	0.0002
3	13188	49468.5	0.0243
3	13193	49470	0.0243
3	13193	49470	0.0002
3	13196	49498.5	0.0002
3	13196	49498.5	0.0243
3	13201	49500	0.0243
3	13201	49500	0.0002
3	13204	49528.5	0.0002
3	13204	49528.5	0.0243
3	13209	49530	0.0243
3	13209	49530	0.0002
3	13212	49558.5	0.0002
3	13212	49558.5	0.0243
3	13217	49560	0.0243
3	13217	49560	0.0002
3	13220	49588.5	0.0002
3	13220	49588.5	0.0243
3	13225	49590	0.0243
3	13225	49590	0.0002
3	13228	49618.5	0.0002
3	13228	49618.5	0.0243
3	13233	49620	0.0243
3	13233	49620	0.0002
3	13236	49648.5	0.0002
3	13236	49648.5	0.0243
3	13241	49650	0.0243
3	13241	49650	0.0002
3	13244	49678.5	0.0002
3	13244	49678.5	0.0243
3	13249	49680	0.0243
3	13249	49680	0.0002
3	13252	49708.5	0.0002
3	13252	49708.5	0.0243
3	13257	49710	0.0243
3	13257	49710	0.0002
3	13260	49738.5	0.0002
3	13260	49738.5	0.0243
3	13265	49740	0.0243
3	13265	49740	0.0002
3	13268	49768.5	0.0002
3	13268	49768.5	0.0243
3	13273	49770	0.0243
3	13273	49770	0.0002
3	13276	49798.5	0.0002
3	13276	49798.5	0.0243
3	13281	49800	0.0243
3	13281	49800	0.0002
3	13284	49828.5	0.0002
3	13284	49828.5	0.0243
3	13289	49830	0.0243
3	13289	49830	0.0002
3	13292	49858.5	0.0002
3	13292	49858.5	0.0243
3	13297	49860	0.0243
3	13297	49860	0.0002
3	13300	49888.5	0.0002
3	13300	49888.5	0.0243
3	13305	49890	0.0243
3	13305	49890	0.0002
3	13308	49918.5	0.0002
3	13308	49918.5	0.0243
3	13313	49920	0.0243
3	13313	49920	0.0002
3	13316	49948.5	0.0002
3	13316	49948.5	0.0243
3	13321	49950	0.0243
3	13321	49950	0.0002
3	13324	49978.5	0.0002
3	13324	49978.5	0.0243
3	13329	49980	0.0243
3	13329	49980	0.0002
3	13332	50008.5	0.0002
3	13332	50008.5	0.0243
3	13337	50010	0.0243
3	13337	50010	0.0002
3	13340	50038.5	0.0002
3	13340	50038.5	0.0243
3	13345	50040	0.0243
3	13345	50040	0.0002
3	13348	50068.5	0.0002
3	13348	50068.5	0.0243
3	13353	50070	0.0243
3	13353	50070	0.0002
3	13356	50098.5	0.0002
3	13356	50098.5	0.0243
3	13361	50100	0.0243
3	13361	50100	0.0002
3	13364	50128.5	0.0002
3	13364	50128.5	0.0243
3	13369	50130	0.0243
3	13369	50130	0.0002
3	13372	50158.5	0.0002
3	13372	50158.5	0.0243
3	13377	50160	0.0243
3	13377	50160	0.0002
3	13380	50188.5	0.0002
3	13380	50188.5	0.0243
3	13385	50190	0.0243
3	13385	50190	0.0002
3	13388	50218.5	0.0002
3	13388	50218.5	0.0243
3	13393	50220	0.0243
3	13393	50220	0.0002
3	13396	50248.5	0.0002
3	13396	50248.5	0.0243
3	13401	50250	0.0243
3	13401	50250	0.0002
3	13404	50278.5	0.0002
3	13404	50278.5	0.0243
3	13409	50280	0.0243
3	13409	50280	0.0002
3	13412	50308.5	0.0002
3	13412	50308.5	0.0243
3	13417	50310	0.0243
3	13417	50310	0.0002
3	13420	50338.5	0.0002
3	13420	50338.5	0.0243
3	13425	50340	0.0243
3	13425	50340	0.0002
3	13428	50368.5	0.0002
3	13428	50368.5	0.0243
3	13433	50370	0.0243
3	13433	50370	0.0002
3	13436	50398.5	0.0002
3	13436	50398.5	0.0243
3	13441	50400	0.0243
3	13441	50400	0.0002
3	13444	50428.5	0.0002
3	13444	50428.5	0.0243
3	13449	50430	0.0243
3	13449	50430	0.0002
3	13452	50458.5	0.0002
3	13452	50458.5	0.0243
3	13457	50460	0.0243
3	13457	50460	0.0002
3	13460	50488.5	0.0002
3	13460	50488.5	0.0243
3	13465	50490	0.0243
3	13465	50490	0.0002
3	13468	50518.5	0.0002
3	13468	50518.5	0.0243
3	13473	50520	0.0243
3	13473	50520	0.0002
3	13476	50548.5	0.0002
3	13476	50548.5	0.0243
3	13481	50550	0.0243
3	13481	50550	0.0002
3	13484	50578.5	0.0002
3	13484	50578.5	0.0243
3	13489	50580	0.0243
3	13489	50580	0.0002
3	13492	50608.5	0.0002
3	13492	50608.5	0.0243
3	13497	50610	0.0243
3	13497	50610	0.0002
3	13500	50638.5	0.0002
3	13500	50638.5	0.0243
3	13505	50640	0.0243
3	13505	50640	0.0002
3	13508	50668.5	0.0002
3	13508	50668.5	0.0243
3	13513	50670	0.0243
3	13513	50670	0.0002
3	13516	50698.5	0.0002
3	13516	50698.5	0.0243
3	13521	50700	0.0243
3	13521	50700	0.0002
3	13524	50728.5	0.0002
3	13524	50728.5	0.0243
3	13529	50730	0.0243
3	13529	50730	0.0002
3	13532	50758.5	0.0002
3	13532	50758.5	0.0243
3	13537	50760	0.0243
3	13537	50760	0.0002
3	13540	50788.5	0.0002
3	13540	50788.5	0.0243
3	13545	50790	0.0243
3	13545	50790	0.0002
3	13548	50818.5	0.0002
3	13548	50818.5	0.0243
3	13553	50820	0.0243
3	13553	50820	0.0002
3	13556	50848.5	0.0002
3	13556	50848.5	0.0243
3	13561	50850	0.0243
3	13561	50850	0.0002
3	13564	50878.5	0.0002
3	13564	50878.5	0.0243
3	13569	50880	0.0243
3	13569	50880	0.0002
3	13572	50908.5	0.0002
3	13572	50908.5	0.0243
3	13577	50910	0.0243
3	13577	50910	0.0002
3	13580	50938.5	0.0002
3	13580	50938.5	0.0243
3	13585	50940	0.0243
3	13585	50940	0.0002
3	13588	50968.5	0.0002
3	13588	50968.5	0.0243
3	13593	50970	0.0243
3	13593	50970	0.0002
3	13596	50998.5	0.0002
3	13596	50998.5	0.0243
3	13601	51000	0.0243
3	13601	51000	0.0002
3	13604	51028.5	0.0002
3	13604	51028.5	0.0243
3	13609	51030	0.0243
3	13609	51030	0.0002
3	13612	51058.5	0.0002
3	13612	51058.5	0.0243
3	13617	51060	0.0243
3	13617	51060	0.0002
3	13620	51088.5	0.0002
3	13620	51088.5	0.0243
3	13625	51090	0.0243
3	13625	51090	0.0002
3	13628	51118.5	0.0002
3	13628	51118.5	0.0243
3	13633	51120	0.0243
3	13633	51120	0.0002
3	13636	51148.5	0.0002
3	13636	51148.5	0.0243
3	13641	51150	0.0243
3	13641	51150	0.0002
3	13644	51178.5	0.0002
3	13644	51178.5	0.0243
3	13649	51180	0.0243
3	13649	51180	0.0002
3	13652	51208.5	0.0002
3	13652	51208.5	0.0243
3	13657	51210	0.0243
3	13657	51210	0.0002
3	13660	51238.5	0.0002
3	13660	51238.5	0.0243
3	13665	51240	0.0243
3	13665	51240	0.0002
3	13668	51268.5	0.0002
3	13668	51268.5	0.0243
3	13673	51270	0.0243
3	13673	51270	0.0002
3	13676	51298.5	0.0002
3	13676	51298.5	0.0243
3	13681	51300	0.0243
3	13681	51300	0.0002
3	13684	51328.5	0.0002
3	13684	51328.5	0.0243
3	13689	51330	0.0243
3	13689	51330	0.0002
3	13692	51358.5	0.0002
3	13692	51358.5	0.0243
3	13697	51360	0.0243
3	13697	51360	0.0002
3	13700	51388.5	0.0002
3	13700	51388.5	0.0243
3	13705	51390	0.0243
3	13705	51390	0.0002
3	13708	51418.5	0.0002
3	13708	51418.5	0.0243
3	13713	51420	0.0243
3	13713	51420	0.0002
3	13716	51448.5	0.0002
3	13716	51448.5	0.0243
3	13721	51450	0.0243
3	13721	51450	0.0002
3	13724	51478.5	0.0002
3	13724	51478.5	0.0243
3	13729	51480	0.0243
3	13729	51480	0.0002
3	13732	51508.5	0.0002
3	13732	51508.5	0.0243
3	13737	51510	0.0243
3	13737	51510	0.0002
3	13740	51538.5	0.0002
3	13740	51538.5	0.0243
3	13745	51540	0.0243
3	13745	51540	0.0002
3	13748	51568.5	0.0002
3	13748	51568.5	0.0243
3	13753	51570	0.0243
3	13753	51570	0.0002
3	13756	51598.5	0.0002
3	13756	51598.5	0.0243
3	13761	51600	0.0243
3	13761	51600	0.0002
3	13764	51628.5	0.0002
3	13764	51628.5	0.0243
3	13769	51630	0.0243
3	13769	51630	0.0002
3	13772	51658.5	0.0002
3	13772	51658.5	0.0243
3	13777	51660	0.0243
3	13777	51660	0.0002
3	13780	51688.5	0.0002
3	13780	51688.5	0.0243
3	13785	51690	0.0243
3	13785	51690	0.0002
3	13788	51718.5	0.0002
3	13788	51718.5	0.0243
3	13793	51720	0.0243
3	13793	51720	0.0002
3	13796	51748.5	0.0002
3	13796	51748.5	0.0243
3	13801	51750	0.0243
3	13801	51750	0.0002
3	13804	51778.5	0.0002
3	13804	51778.5	0.0243
3	13809	51780	0.0243
3	13809	51780	0.0002
3	13812	51808.5	0.0002
3	13812	51808.5	0.0243
3	13817	51810	0.0243
3	13817	51810	0.0002
3	13820	51838.5	0.0002
3	13820	51838.5	0.0243
3	13825	51840	0.0243
3	13825	51840	0.0002
3	13828	51868.5	0.0002
3	13828	51868.5	0.0243
3	13833	51870	0.0243
3	13833	51870	0.0002
3	13836	51898.5	0.0002
3	13836	51898.5	0.0243
3	13841	51900	0.0243
3	13841	51900	0.0002
3	13844	51928.5	0.0002
3	13844	51928.5	0.0243
3	13849	51930	0.0243
3	13849	51930	0.0002
3	13852	51958.5	0.0002
3	13852	51958.5	0.0243
3	13857	51960	0.0243
3	13857	51960	0.0002
3	13860	51988.5	0.0002
3	13860	51988.5	0.0243
3	13865	51990	0.0243
3	13865	51990	0.0002
3	13868	52018.5	0.0002
3	13868	52018.5	0.0243
3	13873	52020	0.0243
3	13873	52020	0.0002
3	13876	52048.5	0.0002
3	13876	52048.5	0.0243
3	13881	52050	0.0243
3	13881	52050	0.0002
3	13884	52078.5	0.0002
3	13884	52078.5	0.0243
3	13889	52080	0.0243
3	13889	52080	0.0002
3	13892	52108.5	0.0002
3	13892	52108.5	0.0243
3	13897	52110	0.0243
3	13897	52110	0.0002
3	13900	52138.5	0.0002
3	13900	52138.5	0.0243
3	13905	52140	0.0243
3	13905	52140	0.0002
3	13908	52168.5	0.0002
3	13908	52168.5	0.0243
3	13913	52170	0.0243
3	13913	52170	0.0002
3	13916	52198.5	0.0002
3	13916	52198.5	0.0243
3	13921	52200	0.0243
3	13921	52200	0.0002
3	13924	52228.5	0.0002
3	13924	52228.5	0.0243
3	13929	52230	0.0243
3	13929	52230	0.0002
3	13932	52258.5	0.0002
3	13932	52258.5	0.0243
3	13937	52260	0.0243
3	13937	52260	0.0002
3	13940	52288.5	0.0002
3	13940	52288.5	0.0243
3	13945	52290	0.0243
3	13945	52290	0.0002
3	13948	52318.5	0.0002
3	13948	52318.5	0.0243
3	13953	52320	0.0243
3	13953	52320	0.0002
3	13956	52348.5	0.0002
3	13956	52348.5	0.0243
3	13961	52350	0.0243
3	13961	52350	0.0002
3	13964	52378.5	0.0002
3	13964	52378.5	0.0243
3	13969	52380	0.0243
3	13969	52380	0.0002
3	13972	52408.5	0.0002
3	13972	52408.5	0.0243
3	13977	52410	0.0243
3	13977	52410	0.0002
3	13980	52438.5	0.0002
3	13980	52438.5	0.0243
3	13985	52440	0.0243
3	13985	52440	0.0002
3	13988	52468.5	0.0002
3	13988	52468.5	0.0243
3	13993	52470	0.0243
3	13993	52470	0.0002
3	13996	52498.5	0.0002
3	13996	52498.5	0.0243
3	14001	52500	0.0243
3	14001	52500	0.0002
3	14004	52528.5	0.0002
3	14004	52528.5	0.0243
3	14009	52530	0.0243
3	14009	52530	0.0002
3	14012	52558.5	0.0002
3	14012	52558.5	0.0243
3	14017	52560	0.0243
3	14017	52560	0.0002
3	14020	52588.5	0.0002
3	14020	52588.5	0.0243
3	14025	52590	0.0243
3	14025	52590	0.0002
3	14028	52618.5	0.0002
3	14028	52618.5	0.0243
3	14033	52620	0.0243
3	14033	52620	0.0002
3	14036	52648.5	0.0002
3	14036	52648.5	0.0243
3	14041	52650	0.0243
3	14041	52650	0.0002
3	14044	52678.5	0.0002
3	14044	52678.5	0.0243
3	14049	52680	0.0243
3	14049	52680	0.0002
3	14052	52708.5	0.0002
3	14052	52708.5	0.0243
3	14057	52710	0.0243
3	14057	52710	0.0002
3	14060	52738.5	0.0002
3	14060	52738.5	0.0243
3	14065	52740	0.0243
3	14065	52740	0.0002
3	14068	52768.5	0.0002
3	14068	52768.5	0.0243
3	14073	52770	0.0243
3	14073	52770	0.0002
3	14076	52798.5	0.0002
3	14076	52798.5	0.0243
3	14081	52800	0.0243
3	14081	52800	0.0002
3	14084	52828.5	0.0002
3	14084	52828.5	0.0243
3	14089	52830	0.0243
3	14089	52830	0.0002
3	14092	52858.5	0.0002
3	14092	52858.5	0.0243
3	14097	52860	0.0243
3	14097	52860	0.0002
3	14100	52888.5	0.0002
3	14100	52888.5	0.0243
3	14105	52890	0.0243
3	14105	52890	0.0002
3	14108	52918.5	0.0002
3	14108	52918.5	0.0243
3	14113	52920	0.0243
3	14113	52920	0.0002
3	14116	52948.5	0.0002
3	14116	52948.5	0.0243
3	14121	52950	0.0243
3	14121	52950	0.0002
3	14124	52978.5	0.0002
3	14124	52978.5	0.0243
3	14129	52980	0.0243
3	14129	52980	0.0002
3	14132	53008.5	0.0002
3	14132	53008.5	0.0243
3	14137	53010	0.0243
3	14137	53010	0.0002
3	14140	53038.5	0.0002
3	14140	53038.5	0.0243
3	14145	53040	0.0243
3	14145	53040	0.0002
3	14148	53068.5	0.0002
3	14148	53068.5	0.0243
3	14153	53070	0.0243
3	14153	53070	0.0002
3	14156	53098.5	0.0002
3	14156	53098.5	0.0243
3	14161	53100	0.0243
3	14161	53100	0.0002
3	14164	53128.5	0.0002
3	14164	53128.5	0.0243
3	14169	53130	0.0243
3	14169	53130	0.0002
3	14172	53158.5	0.0002
3	14172	53158.5	0.0243
3	14177	53160	0.0243
3	14177	53160	0.0002
3	14180	53188.5	0.0002
3	14180	53188.5	0.0243
3	14185	53190	0.0243
3	14185	53190	0.0002
3	14188	53218.5	0.0002
3	14188	53218.5	0.0243
3	14193	53220	0.0243
3	14193	53220	0.0002
3	14196	53248.5	0.0002
3	14196	53248.5	0.0243
3	14201	53250	0.0243
3	14201	53250	0.0002
3	14204	53278.5	0.0002
3	14204	53278.5	0.0243
3	14209	53280	0.0243
3	14209	53280	0.0002
3	14212	53308.5	0.0002
3	14212	53308.5	0.0243
3	14217	53310	0.0243
3	14217	53310	0.0002
3	14220	53338.5	0.0002
3	14220	53338.5	0.0243
3	14225	53340	0.0243
3	14225	53340	0.0002
3	14228	53368.5	0.0002
3	14228	53368.5	0.0243
3	14233	53370	0.0243
3	14233	53370	0.0002
3	14236	53398.5	0.0002
3	14236	53398.5	0.0243
3	14241	53400	0.0243
3	14241	53400	0.0002
3	14244	53428.5	0.0002
3	14244	53428.5	0.0243
3	14249	53430	0.0243
3	14249	53430	0.0002
3	14252	53458.5	0.0002
3	14252	53458.5	0.0243
3	14257	53460	0.0243
3	14257	53460	0.0002
3	14260	53488.5	0.0002
3	14260	53488.5	0.0243
3	14265	53490	0.0243
3	14265	53490	0.0002
3	14268	53518.5	0.0002
3	14268	53518.5	0.0243
3	14273	53520	0.0243
3	14273	53520	0.0002
3	14276	53548.5	0.0002
3	14276	53548.5	0.0243
3	14281	53550	0.0243
3	14281	53550	0.0002
3	14284	53578.5	0.0002
3	14284	53578.5	0.0243
3	14289	53580	0.0243
3	14289	53580	0.0002
3	14292	53608.5	0.0002
3	14292	53608.5	0.0243
3	14297	53610	0.0243
3	14297	53610	0.0002
3	14300	53638.5	0.0002
3	14300	53638.5	0.0243
3	14305	53640	0.0243
3	14305	53640	0.0002
3	14308	53668.5	0.0002
3	14308	53668.5	0.0243
3	14313	53670	0.0243
3	14313	53670	0.0002
3	14316	53698.5	0.0002
3	14316	53698.5	0.0243
3	14321	53700	0.0243
3	14321	53700	0.0002
3	14324	53728.5	0.0002
3	14324	53728.5	0.0243
3	14329	53730	0.0243
3	14329	53730	0.0002
3	14332	53758.5	0.0002
3	14332	53758.5	0.0243
3	14337	53760	0.0243
3	14337	53760	0.0002
3	14340	53788.5	0.0002
3	14340	53788.5	0.0243
3	14345	53790	0.0243
3	14345	53790	0.0002
3	14348	53818.5	0.0002
3	14348	53818.5	0.0243
3	14353	53820	0.0243
3	14353	53820	0.0002
3	14356	53848.5	0.0002
3	14356	53848.5	0.0243
3	14361	53850	0.0243
3	14361	53850	0.0002
3	14364	53878.5	0.0002
3	14364	53878.5	0.0243
3	14369	53880	0.0243
3	14369	53880	0.0002
3	14372	53908.5	0.0002
3	14372	53908.5	0.0243
3	14377	53910	0.0243
3	14377	53910	0.0002
3	14380	53938.5	0.0002
3	14380	53938.5	0.0243
3	14385	53940	0.0243
3	14385	53940	0.0002
3	14388	53968.5	0.0002
3	14388	53968.5	0.0243
3	14393	53970	0.0243
3	14393	53970	0.0002
3	14396	53998.5	0.0002
3	14396	53998.5	0.0243
3	14401	54000	0.0243
3	14401	54000	0.0002
3	14404	54028.5	0.0002
3	14404	54028.5	0.0243
3	14409	54030	0.0243
3	14409	54030	0.0002
3	14412	54058.5	0.0002
3	14412	54058.5	0.0243
3	14417	54060	0.0243
3	14417	54060	0.0002
3	14420	54088.5	0.0002
3	14420	54088.5	0.0243
3	14425	54090	0.0243
3	14425	54090	0.0002
3	14428	54118.5	0.0002
3	14428	54118.5	0.0243
3	14433	54120	0.0243
3	14433	54120	0.0002
3	14436	54148.5	0.0002
3	14436	54148.5	0.0243
3	14441	54150	0.0243
3	14441	54150	0.0002
3	14444	54178.5	0.0002
3	14444	54178.5	0.0243
3	14449	54180	0.0243
3	14449	54180	0.0002
3	14452	54208.5	0.0002
3	14452	54208.5	0.0243
3	14457	54210	0.0243
3	14457	54210	0.0002
3	14460	54238.5	0.0002
3	14460	54238.5	0.0243
3	14465	54240	0.0243
3	14465	54240	0.0002
3	14468	54268.5	0.0002
3	14468	54268.5	0.0243
3	14473	54270	0.0243
3	14473	54270	0.0002
3	14476	54298.5	0.0002
3	14476	54298.5	0.0243
3	14481	54300	0.0243
3	14481	54300	0.0002
3	14484	54328.5	0.0002
3	14484	54328.5	0.0243
3	14489	54330	0.0243
3	14489	54330	0.0002
3	14492	54358.5	0.0002
3	14492	54358.5	0.0243
3	14497	54360	0.0243
3	14497	54360	0.0002
3	14500	54388.5	0.0002
3	14500	54388.5	0.0243
3	14505	54390	0.0243
3	14505	54390	0.0002
3	14508	54418.5	0.0002
3	14508	54418.5	0.0243
3	14513	54420	0.0243
3	14513	54420	0.0002
3	14516	54448.5	0.0002
3	14516	54448.5	0.0243
3	14521	54450	0.0243
3	14521	54450	0.0002
3	14524	54478.5	0.0002
3	14524	54478.5	0.0243
3	14529	54480	0.0243
3	14529	54480	0.0002
3	14532	54508.5	0.0002
3	14532	54508.5	0.0243
3	14537	54510	0.0243
3	14537	54510	0.0002
3	14540	54538.5	0.0002
3	14540	54538.5	0.0243
3	14545	54540	0.0243
3	14545	54540	0.0002
3	14548	54568.5	0.0002
3	14548	54568.5	0.0243
3	14553	54570	0.0243
3	14553	54570	0.0002
3	14556	54598.5	0.0002
3	14556	54598.5	0.0243
3	14561	54600	0.0243
3	14561	54600	0.0002
3	14564	54628.5	0.0002
3	14564	54628.5	0.0243
3	14569	54630	0.0243
3	14569	54630	0.0002
3	14572	54658.5	0.0002
3	14572	54658.5	0.0243
3	14577	54660	0.0243
3	14577	54660	0.0002
3	14580	54688.5	0.0002
3	14580	54688.5	0.0243
3	14585	54690	0.0243
3	14585	54690	0.0002
3	14588	54718.5	0.0002
3	14588	54718.5	0.0243
3	14593	54720	0.0243
3	14593	54720	0.0002
3	14596	54748.5	0.0002
3	14596	54748.5	0.0243
3	14601	54750	0.0243
3	14601	54750	0.0002
3	14604	54778.5	0.0002
3	14604	54778.5	0.0243
3	14609	54780	0.0243
3	14609	54780	0.0002
3	14612	54808.5	0.0002
3	14612	54808.5	0.0243
3	14617	54810	0.0243
3	14617	54810	0.0002
3	14620	54838.5	0.0002
3	14620	54838.5	0.0243
3	14625	54840	0.0243
3	14625	54840	0.0002
3	14628	54868.5	0.0002
3	14628	54868.5	0.0243
3	14633	54870	0.0243
3	14633	54870	0.0002
3	14636	54898.5	0.0002
3	14636	54898.5	0.0243
3	14641	54900	0.0243
3	14641	54900	0.0002
3	14644	54928.5	0.0002
3	14644	54928.5	0.0243
3	14649	54930	0.0243
3	14649	54930	0.0002
3	14652	54958.5	0.0002
3	14652	54958.5	0.0243
3	14657	54960	0.0243
3	14657	54960	0.0002
3	14660	54988.5	0.0002
3	14660	54988.5	0.0243
3	14665	54990	0.0243
3	14665	54990	0.0002
3	14668	55018.5	0.0002
3	14668	55018.5	0.0243
3	14673	55020	0.0243
3	14673	55020	0.0002
3	14676	55048.5	0.0002
3	14676	55048.5	0.0243
3	14681	55050	0.0243
3	14681	55050	0.0002
3	14684	55078.5	0.0002
3	14684	55078.5	0.0243
3	14689	55080	0.0243
3	14689	55080	0.0002
3	14692	55108.5	0.0002
3	14692	55108.5	0.0243
3	14697	55110	0.0243
3	14697	55110	0.0002
3	14700	55138.5	0.0002
3	14700	55138.5	0.0243
3	14705	55140	0.0243
3	14705	55140	0.0002
3	14708	55168.5	0.0002
3	14708	55168.5	0.0243
3	14713	55170	0.0243
3	14713	55170	0.0002
3	14716	55198.5	0.0002
3	14716	55198.5	0.0243
3	14721	55200	0.0243
3	14721	55200	0.0002
3	14724	55228.5	0.0002
3	14724	55228.5	0.0243
3	14729	55230	0.0243
3	14729	55230	0.0002
3	14732	55258.5	0.0002
3	14732	55258.5	0.0243
3	14737	55260	0.0243
3	14737	55260	0.0002
3	14740	55288.5	0.0002
3	14740	55288.5	0.0243
3	14745	55290	0.0243
3	14745	55290	0.0002
3	14748	55318.5	0.0002
3	14748	55318.5	0.0243
3	14753	55320	0.0243
3	14753	55320	0.0002
3	14756	55348.5	0.0002
3	14756	55348.5	0.0243
3	14761	55350	0.0243
3	14761	55350	0.0002
3	14764	55378.5	0.0002
3	14764	55378.5	0.0243
3	14769	55380	0.0243
3	14769	55380	0.0002
3	14772	55408.5	0.0002
3	14772	55408.5	0.0243
3	14777	55410	0.0243
3	14777	55410	0.0002
3	14780	55438.5	0.0002
3	14780	55438.5	0.0243
3	14785	55440	0.0243
3	14785	55440	0.0002
3	14788	55468.5	0.0002
3	14788	55468.5	0.0243
3	14793	55470	0.0243
3	14793	55470	0.0002
3	14796	55498.5	0.0002
3	14796	55498.5	0.0243
3	14801	55500	0.0243
3	14801	55500	0.0002
3	14804	55528.5	0.0002
3	14804	55528.5	0.0243
3	14809	55530	0.0243
3	14809	55530	0.0002
3	14812	55558.5	0.0002
3	14812	55558.5	0.0243
3	14817	55560	0.0243
3	14817	55560	0.0002
3	14820	55588.5	0.0002
3	14820	55588.5	0.0243
3	14825	55590	0.0243
3	14825	55590	0.0002
3	14828	55618.5	0.0002
3	14828	55618.5	0.0243
3	14833	55620	0.0243
3	14833	55620	0.0002
3	14836	55648.5	0.0002
3	14836	55648.5	0.0243
3	14841	55650	0.0243
3	14841	55650	0.0002
3	14844	55678.5	0.0002
3	14844	55678.5	0.0243
3	14849	55680	0.0243
3	14849	55680	0.0002
3	14852	55708.5	0.0002
3	14852	55708.5	0.0243
3	14857	55710	0.0243
3	14857	55710	0.0002
3	14860	55738.5	0.0002
3	14860	55738.5	0.0243
3	14865	55740	0.0243
3	14865	55740	0.0002
3	14868	55768.5	0.0002
3	14868	55768.5	0.0243
3	14873	55770	0.0243
3	14873	55770	0.0002
3	14876	55798.5	0.0002
3	14876	55798.5	0.0243
3	14881	55800	0.0243
3	14881	55800	0.0002
3	14884	55828.5	0.0002
3	14884	55828.5	0.0243
3	14889	55830	0.0243
3	14889	55830	0.0002
3	14892	55858.5	0.0002
3	14892	55858.5	0.0243
3	14897	55860	0.0243
3	14897	55860	0.0002
3	14900	55888.5	0.0002
3	14900	55888.5	0.0243
3	14905	55890	0.0243
3	14905	55890	0.0002
3	14908	55918.5	0.0002
3	14908	55918.5	0.0243
3	14913	55920	0.0243
3	14913	55920	0.0002
3	14916	55948.5	0.0002
3	14916	55948.5	0.0243
3	14921	55950	0.0243
3	14921	55950	0.0002
3	14924	55978.5	0.0002
3	14924	55978.5	0.0243
3	14929	55980	0.0243
3	14929	55980	0.0002
3	14932	56008.5	0.0002
3	14932	56008.5	0.0243
3	14937	56010	0.0243
3	14937	56010	0.0002
3	14940	56038.5	0.0002
3	14940	56038.5	0.0243
